Program Version,EnergyPlus, Version 8.8.0-7c3bbe4830, YMD=2017.11.09 18:10
! <Version>, Version ID
 Version, 8.8
! <Timesteps per Hour>, #TimeSteps, Minutes per TimeStep {minutes}
 Timesteps per Hour,  4, 15
! <System Convergence Limits>, Minimum System TimeStep {minutes}, Max HVAC Iterations, Minimum Plant Iterations, Maximum Plant Iterations
 System Convergence Limits, 1, 20, 2, 8
! <Simulation Control>, Do Zone Sizing, Do System Sizing, Do Plant Sizing, Do Design Days, Do Weather Simulation, Do HVAC Sizing Simulation
 Simulation Control, Yes, Yes, Yes, Yes, Yes, No
! <Output Reporting Tolerances>, Tolerance for Time Heating Setpoint Not Met, Tolerance for Zone Cooling Setpoint Not Met Time
 Output Reporting Tolerances, 0.200, 0.200, 
! <Site:GroundTemperature:BuildingSurface>,Jan{C},Feb{C},Mar{C},Apr{C},May{C},Jun{C},Jul{C},Aug{C},Sep{C},Oct{C},Nov{C},Dec{C}
 Site:GroundTemperature:BuildingSurface,  18.00,  18.00,  18.00,  18.00,  18.00,  18.00,  18.00,  18.00,  18.00,  18.00,  18.00,  18.00
! <Site:GroundTemperature:FCfactorMethod>,Jan{C},Feb{C},Mar{C},Apr{C},May{C},Jun{C},Jul{C},Aug{C},Sep{C},Oct{C},Nov{C},Dec{C}
 Site:GroundTemperature:FCfactorMethod,  18.95,  16.95,  16.41,  16.88,  19.58,  22.60,  25.44,  27.50,  28.10,  27.14,  24.81,  21.87
! <Site:GroundTemperature:Shallow>,Jan{C},Feb{C},Mar{C},Apr{C},May{C},Jun{C},Jul{C},Aug{C},Sep{C},Oct{C},Nov{C},Dec{C}
 Site:GroundTemperature:Shallow,  13.00,  13.00,  13.00,  13.00,  13.00,  13.00,  13.00,  13.00,  13.00,  13.00,  13.00,  13.00
! <Site:GroundTemperature:Deep>,Jan{C},Feb{C},Mar{C},Apr{C},May{C},Jun{C},Jul{C},Aug{C},Sep{C},Oct{C},Nov{C},Dec{C}
 Site:GroundTemperature:Deep,  16.00,  16.00,  16.00,  16.00,  16.00,  16.00,  16.00,  16.00,  16.00,  16.00,  16.00,  16.00
! <Site:GroundReflectance>,Jan{dimensionless},Feb{dimensionless},Mar{dimensionless},Apr{dimensionless},May{dimensionless},Jun{dimensionless},Jul{dimensionless},Aug{dimensionless},Sep{dimensionless},Oct{dimensionless},Nov{dimensionless},Dec{dimensionless}
 Site:GroundReflectance,  0.20,  0.20,  0.20,  0.20,  0.20,  0.20,  0.20,  0.20,  0.20,  0.20,  0.20,  0.20
! <Site:GroundReflectance:SnowModifier>, Normal, Daylighting {dimensionless}
 Site:GroundReflectance:SnowModifier,   1.000,   1.000
! <Site:GroundReflectance:Snow>,Jan{dimensionless},Feb{dimensionless},Mar{dimensionless},Apr{dimensionless},May{dimensionless},Jun{dimensionless},Jul{dimensionless},Aug{dimensionless},Sep{dimensionless},Oct{dimensionless},Nov{dimensionless},Dec{dimensionless}
 Site:GroundReflectance:Snow,  0.20,  0.20,  0.20,  0.20,  0.20,  0.20,  0.20,  0.20,  0.20,  0.20,  0.20,  0.20
! <Site:GroundReflectance:Snow:Daylighting>,Jan{dimensionless},Feb{dimensionless},Mar{dimensionless},Apr{dimensionless},May{dimensionless},Jun{dimensionless},Jul{dimensionless},Aug{dimensionless},Sep{dimensionless},Oct{dimensionless},Nov{dimensionless},Dec{dimensionless}
 Site:GroundReflectance:Snow:Daylighting,  0.20,  0.20,  0.20,  0.20,  0.20,  0.20,  0.20,  0.20,  0.20,  0.20,  0.20,  0.20
! <Environment:Weather Station>,Wind Sensor Height Above Ground {m},Wind Speed Profile Exponent {},Wind Speed Profile Boundary Layer Thickness {m},Air Temperature Sensor Height Above Ground {m},Wind Speed Modifier Coefficient-Internal,Temperature Modifier Coefficient-Internal
Environment:Weather Station,10.000,0.140,270.000,1.500,1.586,9.750E-003
! <Site:Location>, Location Name, Latitude {N+/S- Deg}, Longitude {E+/W- Deg},  Time Zone Number {GMT+/-}, Elevation {m},  Standard Pressure at Elevation {Pa}, Standard RhoAir at Elevation
Site:Location,Tampa International Ap FL USA TMY3 WMO#=722110,27.97,-82.53,-5.00,6.00,101253,1.2035
! <Building Information>, Building Name,North Axis {deg},Terrain,  Loads Convergence Tolerance Value,Temperature Convergence Tolerance Value,  Solar Distribution,Maximum Number of Warmup Days,Minimum Number of Warmup Days
 Building Information,Large Office,0.000,City,4.00000E-002,0.20000,FullInteriorAndExterior,25,6
! <Inside Convection Algorithm>, Algorithm {Simple | TARP | CeilingDiffuser | AdaptiveConvectionAlgorithm}
Inside Convection Algorithm,TARP
! <Outside Convection Algorithm>, Algorithm {SimpleCombined | TARP | MoWitt | DOE-2 | AdaptiveConvectionAlgorithm}
Outside Convection Algorithm,TARP
! <Sky Radiance Distribution>, Value {Anisotropic}
Sky Radiance Distribution,Anisotropic
! <Zone Air Solution Algorithm>, Value {ThirdOrderBackwardDifference | AnalyticalSolution | EulerMethod}
 Zone Air Solution Algorithm, ThirdOrderBackwardDifference
! <Zone Air Carbon Dioxide Balance Simulation>, Simulation {Yes/No}, Carbon Dioxide Concentration
 Zone Air Carbon Dioxide Balance Simulation, No,N/A
! <Zone Air Generic Contaminant Balance Simulation>, Simulation {Yes/No}, Generic Contaminant Concentration
 Zone Air Generic Contaminant Balance Simulation, No,N/A
! <Zone Air Mass Flow Balance Simulation>, Enforce Mass Balance, Adjust Zone Mixing, Adjust Zone Infiltration {AddInfiltration | AdjustInfiltration | None}, Infiltration Zones {MixingSourceZonesOnly | AllZones}
 Zone Air Mass Flow Balance Simulation, No,N/A,N/A,N/A
! <HVACSystemRootFindingAlgorithm>, Value {RegulaFalsi | Bisection | BisectionThenRegulaFalsi | RegulaFalsiThenBisection}
 HVACSystemRootFindingAlgorithm, RegulaFalsi
! <Environment:Site Atmospheric Variation>,Wind Speed Profile Exponent {},Wind Speed Profile Boundary Layer Thickness {m},Air Temperature Gradient Coefficient {K/m}
Environment:Site Atmospheric Variation,0.330,460.000,6.500000E-003
! <Surface Geometry>,Starting Corner,Vertex Input Direction,Coordinate System,Daylight Reference Point Coordinate System,Rectangular (Simple) Surface Coordinate System
 Surface Geometry,UpperLeftCorner,Counterclockwise,RelativeCoordinateSystem,RelativeCoordinateSystem,RelativeToZoneOrigin
! <Other Side Coefficients>,Name,Combined convective/radiative film coefficient {W/m2-K},User selected Constant Temperature {C},Coefficient modifying the constant temperature term,Coefficient modifying the external dry bulb temperature term,Coefficient modifying the ground temperature term,Coefficient modifying the wind speed term {s/m},Coefficient modifying the zone air temperature term,Constant Temperature Schedule Name,Sinusoidal Variation,Period of Sinusoidal Variation,Previous Other Side Temperature Coefficient,Minimum Other Side Temperature {C},Maximum Other Side Temperature {C}
Other Side Coefficients,SURFPROPOTHSDCOEFBASEMENTAVGWALL,N/A,N/A,1.000,0.000,0.000,0.000,0.000,SCHEDULEOSCBASEMENTWALLSURFACETEMP,NO,24.000,0.000,N/A,N/A
Other Side Coefficients,SURFPROPOTHSDCOEFBASEMENTAVGFLOOR,N/A,N/A,1.000,0.000,0.000,0.000,0.000,SCHEDULEOSCBASEMENTFLOORTEMP,NO,24.000,0.000,N/A,N/A
Other Side Coefficients,SURFPROPOTHSDCOEFBASEMENTUPPERWALL,N/A,N/A,1.000,0.000,0.000,0.000,0.000,SCHEDULEOSCBASEMENTUPPERWALLTEMP,NO,24.000,0.000,N/A,N/A
Other Side Coefficients,SURFPROPOTHSDCOEFBASEMENTLOWERWALL,N/A,N/A,1.000,0.000,0.000,0.000,0.000,SCHEDULEOSCBASEMENTLOWERWALLTEMP,NO,24.000,0.000,N/A,N/A
! <Surface Heat Transfer Algorithm>, Value {CTF - ConductionTransferFunction | EMPD - MoisturePenetrationDepthConductionTransferFunction | CondFD - ConductionFiniteDifference | HAMT - CombinedHeatAndMoistureFiniteElement} - Description,Inside Surface Max Temperature Limit{C}, Surface Convection Coefficient Lower Limit {W/m2-K}, Surface Convection Coefficient Upper Limit {W/m2-K}
Surface Heat Transfer Algorithm, CTF - ConductionTransferFunction,200,0.10,1000.0
! <Shading Summary>, Number of Fixed Detached Shades, Number of Building Detached Shades, Number of Attached Shades
 Shading Summary,0,0,0
! <Zone Summary>, Number of Zones, Number of Zone Surfaces, Number of SubSurfaces
 Zone Summary,23,197,12
! <Zone Information>,Zone Name,North Axis {deg},Origin X-Coordinate {m},Origin Y-Coordinate {m},Origin Z-Coordinate {m},Centroid X-Coordinate {m},Centroid Y-Coordinate {m},Centroid Z-Coordinate {m},Type,Zone Multiplier,Zone List Multiplier,Minimum X {m},Maximum X {m},Minimum Y {m},Maximum Y {m},Minimum Z {m},Maximum Z {m},Ceiling Height {m},Volume {m3},Zone Inside Convection Algorithm {Simple-Detailed-CeilingDiffuser-TrombeWall},Zone Outside Convection Algorithm {Simple-Detailed-Tarp-MoWitt-DOE-2-BLAST}, Floor Area {m2},Exterior Gross Wall Area {m2},Exterior Net Wall Area {m2},Exterior Window Area {m2}, Number of Surfaces, Number of SubSurfaces, Number of Shading SubSurfaces,  Part of Total Building Area
 Zone Information, BASEMENT,0.0,0.00,0.00,0.00,44.59,24.37,-1.22,1,1,1,16.08,73.11,0.00,48.74,-2.44,0.00,2.44,6779.02,TARP,TARP,2779.43,0.00,0.00,0.00,9,0,0,Yes
 Zone Information, CORE_BOTTOM,0.0,0.00,0.00,0.00,37.01,24.37,1.37,1,1,1,5.49,68.53,4.57,44.17,0.00,2.74,2.74,6849.35,TARP,TARP,2496.12,0.00,0.00,0.00,7,0,0,Yes
 Zone Information, CORE_MID,0.0,0.00,0.00,0.00,37.01,24.37,18.14,1,10,1,5.49,68.53,4.57,44.17,16.77,19.51,2.74,6849.35,TARP,TARP,2496.12,0.00,0.00,0.00,6,0,0,Yes
 Zone Information, CORE_TOP,0.0,0.00,0.00,0.00,37.01,24.37,34.91,1,1,1,5.49,68.53,4.57,44.17,33.54,36.28,2.74,6849.35,TARP,TARP,2496.12,0.00,0.00,0.00,6,0,0,Yes
 Zone Information, PERIMETER_BOT_ZN_3,0.0,0.00,0.00,0.00,36.55,46.54,1.37,1,1,1,0.00,73.11,44.17,48.74,0.00,2.74,2.74,860.00,TARP,TARP,313.41,200.61,84.71,115.90,8,1,0,Yes
 Zone Information, PERIMETER_BOT_ZN_2,0.0,0.00,0.00,0.00,70.95,24.37,1.37,1,1,1,68.53,73.11,0.00,48.74,0.00,2.74,2.74,554.22,TARP,TARP,201.98,133.74,56.47,77.26,6,1,0,Yes
 Zone Information, PERIMETER_BOT_ZN_1,0.0,0.00,0.00,0.00,36.55,2.20,1.37,1,1,1,0.00,73.11,0.00,4.57,0.00,2.74,2.74,860.02,TARP,TARP,313.42,200.61,84.71,115.90,8,1,0,Yes
 Zone Information, PERIMETER_BOT_ZN_4,0.0,0.00,0.00,0.00,2.16,24.37,1.37,1,1,1,0.00,4.57,0.00,48.74,0.00,2.74,2.74,554.22,TARP,TARP,201.98,133.74,56.47,77.26,6,1,0,Yes
 Zone Information, PERIMETER_MID_ZN_3,0.0,0.00,0.00,0.00,36.55,46.54,18.14,1,10,1,0.00,73.11,44.17,48.74,16.77,19.51,2.74,860.00,TARP,TARP,313.41,200.61,84.71,115.90,7,1,0,Yes
 Zone Information, PERIMETER_MID_ZN_2,0.0,0.00,0.00,0.00,70.95,24.37,18.14,1,10,1,68.53,73.11,0.00,48.74,16.77,19.51,2.74,554.22,TARP,TARP,201.98,133.74,56.47,77.26,6,1,0,Yes
 Zone Information, PERIMETER_MID_ZN_1,0.0,0.00,0.00,0.00,36.55,2.20,18.14,1,10,1,0.00,73.11,0.00,4.57,16.77,19.51,2.74,860.02,TARP,TARP,313.42,200.61,84.71,115.90,7,1,0,Yes
 Zone Information, PERIMETER_MID_ZN_4,0.0,0.00,0.00,0.00,2.16,24.37,18.14,1,10,1,0.00,4.57,0.00,48.74,16.77,19.51,2.74,554.22,TARP,TARP,201.98,133.74,56.47,77.26,6,1,0,Yes
 Zone Information, PERIMETER_TOP_ZN_3,0.0,0.00,0.00,0.00,36.55,46.54,34.91,1,1,1,0.00,73.11,44.17,48.74,33.54,36.28,2.74,860.00,TARP,TARP,313.41,200.61,84.71,115.90,7,1,0,Yes
 Zone Information, PERIMETER_TOP_ZN_2,0.0,0.00,0.00,0.00,70.95,24.37,34.91,1,1,1,68.53,73.11,0.00,48.74,33.54,36.28,2.74,554.22,TARP,TARP,201.98,133.74,56.47,77.26,6,1,0,Yes
 Zone Information, PERIMETER_TOP_ZN_1,0.0,0.00,0.00,0.00,36.55,2.20,34.91,1,1,1,0.00,73.11,0.00,4.57,33.54,36.28,2.74,860.02,TARP,TARP,313.42,200.61,84.71,115.90,7,1,0,Yes
 Zone Information, PERIMETER_TOP_ZN_4,0.0,0.00,0.00,0.00,2.16,24.37,34.91,1,1,1,0.00,4.57,0.00,48.74,33.54,36.28,2.74,554.22,TARP,TARP,201.98,133.74,56.47,77.26,6,1,0,Yes
 Zone Information, GROUNDFLOOR_PLENUM,0.0,0.00,0.00,0.00,36.55,24.37,3.35,1,1,1,0.00,73.11,0.00,48.74,2.74,3.96,1.22,4344.14,TARP,TARP,3563.11,297.11,297.11,0.00,11,0,0,No
 Zone Information, MIDFLOOR_PLENUM,0.0,0.00,0.00,0.00,36.55,24.37,20.12,1,10,1,0.00,73.11,0.00,48.74,19.51,20.73,1.22,4344.14,TARP,TARP,3563.11,297.11,297.11,0.00,11,0,0,No
 Zone Information, TOPFLOOR_PLENUM,0.0,0.00,0.00,0.00,36.55,24.37,36.89,1,1,1,0.00,73.11,0.00,48.74,36.28,37.50,1.22,4344.14,TARP,TARP,3563.11,297.11,297.11,0.00,11,0,0,No
 Zone Information, DATACENTER_BOT_ZN_6,0.0,5.49,44.17,0.00,5.03,24.37,1.37,1,1,1,4.57,5.49,4.57,44.17,0.00,2.74,2.74,99.34,TARP,TARP,36.20,0.00,0.00,0.00,6,0,0,Yes
 Zone Information, DATACENTER_MID_ZN_6,0.0,4.57,4.57,16.77,5.03,24.37,18.14,1,10,1,4.57,5.49,4.57,44.17,16.77,19.51,2.74,99.34,TARP,TARP,36.20,0.00,0.00,0.00,6,0,0,Yes
 Zone Information, DATACENTER_TOP_ZN_6,0.0,4.57,4.57,33.54,5.03,24.37,34.91,1,1,1,4.57,5.49,4.57,44.17,33.54,36.28,2.74,99.34,TARP,TARP,36.20,0.00,0.00,0.00,6,0,0,Yes
 Zone Information, DATACENTER_BASEMENT_ZN_6,0.0,16.08,0.00,-2.44,8.04,24.37,-1.22,1,1,1,0.00,16.08,0.00,48.74,-2.44,0.00,2.44,1911.37,TARP,TARP,783.68,0.00,0.00,0.00,10,0,0,Yes
! <Zone Internal Gains Nominal>,Zone Name, Floor Area {m2},# Occupants,Area per Occupant {m2/person},Occupant per Area {person/m2},Interior Lighting {W/m2},Electric Load {W/m2},Gas Load {W/m2},Other Load {W/m2},Hot Water Eq {W/m2},Steam Equipment {W/m2},Sum Loads per Area {W/m2},Outdoor Controlled Baseboard Heat
 Zone Internal Gains Nominal, BASEMENT,2779.43,149.6,18.579,5.382E-002,8.826,4.842,0.000,0.000,0.000,0.000,13.668,No
 Zone Internal Gains Nominal, CORE_BOTTOM,2496.12,134.4,18.579,5.382E-002,8.826,8.070,0.000,0.000,0.000,0.000,16.896,No
 Zone Internal Gains Nominal, CORE_MID,2496.12,134.4,18.579,5.382E-002,8.826,8.070,0.000,0.000,0.000,0.000,16.896,No
 Zone Internal Gains Nominal, CORE_TOP,2496.12,134.4,18.579,5.382E-002,8.826,8.070,0.000,0.000,0.000,0.000,16.896,No
 Zone Internal Gains Nominal, PERIMETER_BOT_ZN_3,313.41,16.9,18.579,5.382E-002,8.826,8.070,0.000,0.000,0.000,0.000,16.896,No
 Zone Internal Gains Nominal, PERIMETER_BOT_ZN_2,201.98,10.9,18.579,5.382E-002,8.826,8.070,0.000,0.000,0.000,0.000,16.896,No
 Zone Internal Gains Nominal, PERIMETER_BOT_ZN_1,313.42,16.9,18.579,5.382E-002,8.826,8.070,0.000,0.000,0.000,0.000,16.896,No
 Zone Internal Gains Nominal, PERIMETER_BOT_ZN_4,201.98,10.9,18.579,5.382E-002,8.826,8.070,0.000,0.000,0.000,0.000,16.896,No
 Zone Internal Gains Nominal, PERIMETER_MID_ZN_3,313.41,16.9,18.579,5.382E-002,8.826,8.070,0.000,0.000,0.000,0.000,16.896,No
 Zone Internal Gains Nominal, PERIMETER_MID_ZN_2,201.98,10.9,18.579,5.382E-002,8.826,8.070,0.000,0.000,0.000,0.000,16.896,No
 Zone Internal Gains Nominal, PERIMETER_MID_ZN_1,313.42,16.9,18.579,5.382E-002,8.826,8.070,0.000,0.000,0.000,0.000,16.896,No
 Zone Internal Gains Nominal, PERIMETER_MID_ZN_4,201.98,10.9,18.579,5.382E-002,8.826,8.070,0.000,0.000,0.000,0.000,16.896,No
 Zone Internal Gains Nominal, PERIMETER_TOP_ZN_3,313.41,16.9,18.579,5.382E-002,8.826,8.070,0.000,0.000,0.000,0.000,16.896,No
 Zone Internal Gains Nominal, PERIMETER_TOP_ZN_2,201.98,10.9,18.579,5.382E-002,8.826,8.070,0.000,0.000,0.000,0.000,16.896,No
 Zone Internal Gains Nominal, PERIMETER_TOP_ZN_1,313.42,16.9,18.579,5.382E-002,8.826,8.070,0.000,0.000,0.000,0.000,16.896,No
 Zone Internal Gains Nominal, PERIMETER_TOP_ZN_4,201.98,10.9,18.579,5.382E-002,8.826,8.070,0.000,0.000,0.000,0.000,16.896,No
 Zone Internal Gains Nominal, GROUNDFLOOR_PLENUM,3563.11,0.0,N/A,0.000,0.000,0.000,0.000,0.000,0.000,0.000,0.000,No
 Zone Internal Gains Nominal, MIDFLOOR_PLENUM,3563.11,0.0,N/A,0.000,0.000,0.000,0.000,0.000,0.000,0.000,0.000,No
 Zone Internal Gains Nominal, TOPFLOOR_PLENUM,3563.11,0.0,N/A,0.000,0.000,0.000,0.000,0.000,0.000,0.000,0.000,No
 Zone Internal Gains Nominal, DATACENTER_BOT_ZN_6,36.20,0.0,N/A,0.000,8.826,215.299,0.000,0.000,0.000,0.000,224.126,No
 Zone Internal Gains Nominal, DATACENTER_MID_ZN_6,36.20,0.0,N/A,0.000,8.826,215.299,0.000,0.000,0.000,0.000,224.126,No
 Zone Internal Gains Nominal, DATACENTER_TOP_ZN_6,36.20,0.0,N/A,0.000,8.826,215.299,0.000,0.000,0.000,0.000,224.126,No
 Zone Internal Gains Nominal, DATACENTER_BASEMENT_ZN_6,783.68,0.0,N/A,0.000,8.826,484.423,0.000,0.000,0.000,0.000,493.250,No
! <People Internal Gains Nominal>,Name,Schedule Name,Zone Name,Zone Floor Area {m2},# Zone Occupants,Number of People {},People/Floor Area {person/m2},Floor Area per person {m2/person},Fraction Radiant,Fraction Convected,Sensible Fraction Calculation,Activity level,ASHRAE 55 Warnings,Carbon Dioxide Generation Rate,Nominal Minimum Number of People,Nominal Maximum Number of People,MRT Calculation Type,Work Efficiency, Clothing Insulation Calculation Method,Clothing Insulation Calculation Method Schedule,Clothing,Air Velocity,Fanger Calculation,Pierce Calculation,KSU Calculation
 People Internal Gains Nominal, BASEMENT,BLDG_OCC_SCH,BASEMENT,2779.43,149.6,149.6,5.382E-002,18.579,0.300,0.700,AutoCalculate,ACTIVITY_SCH,No,3.8200E-008,0,150,Zone Averaged,WORK_EFF_SCH,Clothing Insulation Schedule,N/A,CLOTHING_SCH,AIR_VELO_SCH,Yes,No,No
 People Internal Gains Nominal, CORE_BOTTOM,BLDG_OCC_SCH,CORE_BOTTOM,2496.12,134.4,134.4,5.382E-002,18.579,0.300,0.700,AutoCalculate,ACTIVITY_SCH,No,3.8200E-008,0,134,Zone Averaged,WORK_EFF_SCH,Clothing Insulation Schedule,N/A,CLOTHING_SCH,AIR_VELO_SCH,Yes,No,No
 People Internal Gains Nominal, CORE_MID,BLDG_OCC_SCH,CORE_MID,2496.12,134.4,134.4,5.382E-002,18.579,0.300,0.700,AutoCalculate,ACTIVITY_SCH,No,3.8200E-008,0,134,Zone Averaged,WORK_EFF_SCH,Clothing Insulation Schedule,N/A,CLOTHING_SCH,AIR_VELO_SCH,Yes,No,No
 People Internal Gains Nominal, CORE_TOP,BLDG_OCC_SCH,CORE_TOP,2496.12,134.4,134.4,5.382E-002,18.579,0.300,0.700,AutoCalculate,ACTIVITY_SCH,No,3.8200E-008,0,134,Zone Averaged,WORK_EFF_SCH,Clothing Insulation Schedule,N/A,CLOTHING_SCH,AIR_VELO_SCH,Yes,No,No
 People Internal Gains Nominal, PERIMETER_BOT_ZN_3,BLDG_OCC_SCH,PERIMETER_BOT_ZN_3,313.41,16.9,16.9,5.382E-002,18.579,0.300,0.700,AutoCalculate,ACTIVITY_SCH,No,3.8200E-008,0,17,Zone Averaged,WORK_EFF_SCH,Clothing Insulation Schedule,N/A,CLOTHING_SCH,AIR_VELO_SCH,Yes,No,No
 People Internal Gains Nominal, PERIMETER_BOT_ZN_2,BLDG_OCC_SCH,PERIMETER_BOT_ZN_2,201.98,10.9,10.9,5.382E-002,18.579,0.300,0.700,AutoCalculate,ACTIVITY_SCH,No,3.8200E-008,0,11,Zone Averaged,WORK_EFF_SCH,Clothing Insulation Schedule,N/A,CLOTHING_SCH,AIR_VELO_SCH,Yes,No,No
 People Internal Gains Nominal, PERIMETER_BOT_ZN_1,BLDG_OCC_SCH,PERIMETER_BOT_ZN_1,313.42,16.9,16.9,5.382E-002,18.579,0.300,0.700,AutoCalculate,ACTIVITY_SCH,No,3.8200E-008,0,17,Zone Averaged,WORK_EFF_SCH,Clothing Insulation Schedule,N/A,CLOTHING_SCH,AIR_VELO_SCH,Yes,No,No
 People Internal Gains Nominal, PERIMETER_BOT_ZN_4,BLDG_OCC_SCH,PERIMETER_BOT_ZN_4,201.98,10.9,10.9,5.382E-002,18.579,0.300,0.700,AutoCalculate,ACTIVITY_SCH,No,3.8200E-008,0,11,Zone Averaged,WORK_EFF_SCH,Clothing Insulation Schedule,N/A,CLOTHING_SCH,AIR_VELO_SCH,Yes,No,No
 People Internal Gains Nominal, PERIMETER_MID_ZN_3,BLDG_OCC_SCH,PERIMETER_MID_ZN_3,313.41,16.9,16.9,5.382E-002,18.579,0.300,0.700,AutoCalculate,ACTIVITY_SCH,No,3.8200E-008,0,17,Zone Averaged,WORK_EFF_SCH,Clothing Insulation Schedule,N/A,CLOTHING_SCH,AIR_VELO_SCH,Yes,No,No
 People Internal Gains Nominal, PERIMETER_MID_ZN_2,BLDG_OCC_SCH,PERIMETER_MID_ZN_2,201.98,10.9,10.9,5.382E-002,18.579,0.300,0.700,AutoCalculate,ACTIVITY_SCH,No,3.8200E-008,0,11,Zone Averaged,WORK_EFF_SCH,Clothing Insulation Schedule,N/A,CLOTHING_SCH,AIR_VELO_SCH,Yes,No,No
 People Internal Gains Nominal, PERIMETER_MID_ZN_1,BLDG_OCC_SCH,PERIMETER_MID_ZN_1,313.42,16.9,16.9,5.382E-002,18.579,0.300,0.700,AutoCalculate,ACTIVITY_SCH,No,3.8200E-008,0,17,Zone Averaged,WORK_EFF_SCH,Clothing Insulation Schedule,N/A,CLOTHING_SCH,AIR_VELO_SCH,Yes,No,No
 People Internal Gains Nominal, PERIMETER_MID_ZN_4,BLDG_OCC_SCH,PERIMETER_MID_ZN_4,201.98,10.9,10.9,5.382E-002,18.579,0.300,0.700,AutoCalculate,ACTIVITY_SCH,No,3.8200E-008,0,11,Zone Averaged,WORK_EFF_SCH,Clothing Insulation Schedule,N/A,CLOTHING_SCH,AIR_VELO_SCH,Yes,No,No
 People Internal Gains Nominal, PERIMETER_TOP_ZN_3,BLDG_OCC_SCH,PERIMETER_TOP_ZN_3,313.41,16.9,16.9,5.382E-002,18.579,0.300,0.700,AutoCalculate,ACTIVITY_SCH,No,3.8200E-008,0,17,Zone Averaged,WORK_EFF_SCH,Clothing Insulation Schedule,N/A,CLOTHING_SCH,AIR_VELO_SCH,Yes,No,No
 People Internal Gains Nominal, PERIMETER_TOP_ZN_2,BLDG_OCC_SCH,PERIMETER_TOP_ZN_2,201.98,10.9,10.9,5.382E-002,18.579,0.300,0.700,AutoCalculate,ACTIVITY_SCH,No,3.8200E-008,0,11,Zone Averaged,WORK_EFF_SCH,Clothing Insulation Schedule,N/A,CLOTHING_SCH,AIR_VELO_SCH,Yes,No,No
 People Internal Gains Nominal, PERIMETER_TOP_ZN_1,BLDG_OCC_SCH,PERIMETER_TOP_ZN_1,313.42,16.9,16.9,5.382E-002,18.579,0.300,0.700,AutoCalculate,ACTIVITY_SCH,No,3.8200E-008,0,17,Zone Averaged,WORK_EFF_SCH,Clothing Insulation Schedule,N/A,CLOTHING_SCH,AIR_VELO_SCH,Yes,No,No
 People Internal Gains Nominal, PERIMETER_TOP_ZN_4,BLDG_OCC_SCH,PERIMETER_TOP_ZN_4,201.98,10.9,10.9,5.382E-002,18.579,0.300,0.700,AutoCalculate,ACTIVITY_SCH,No,3.8200E-008,0,11,Zone Averaged,WORK_EFF_SCH,Clothing Insulation Schedule,N/A,CLOTHING_SCH,AIR_VELO_SCH,Yes,No,No
! <Lights Internal Gains Nominal>,Name,Schedule Name,Zone Name,Zone Floor Area {m2},# Zone Occupants,Lighting Level {W},Lights/Floor Area {W/m2},Lights per person {W/person},Fraction Return Air,Fraction Radiant,Fraction Short Wave,Fraction Convected,Fraction Replaceable,End-Use Category,Nominal Minimum Lighting Level {W},Nominal Maximum Lighting Level {W}
 Lights Internal Gains Nominal, BASEMENT_LIGHTS,BLDG_LIGHT_SCH,BASEMENT,2779.43,149.6,24532.349,8.826,163.984,0.000,0.700,0.200,0.100,1.000,General Lights,0.000,24532.349
 Lights Internal Gains Nominal, CORE_BOTTOM_LIGHTS,BLDG_LIGHT_SCH,CORE_BOTTOM,2496.12,134.4,22031.774,8.826,163.984,0.000,0.700,0.200,0.100,1.000,General Lights,0.000,22031.774
 Lights Internal Gains Nominal, CORE_MID_LIGHTS,BLDG_LIGHT_SCH,CORE_MID,2496.12,134.4,22031.774,8.826,163.984,0.000,0.700,0.200,0.100,1.000,General Lights,0.000,22031.774
 Lights Internal Gains Nominal, CORE_TOP_LIGHTS,BLDG_LIGHT_SCH,CORE_TOP,2496.12,134.4,22031.774,8.826,163.984,0.000,0.700,0.200,0.100,1.000,General Lights,0.000,22031.774
 Lights Internal Gains Nominal, PERIMETER_BOT_ZN_3_LIGHTS,BLDG_LIGHT_SCH,PERIMETER_BOT_ZN_3,313.41,16.9,2766.309,8.826,163.984,0.000,0.700,0.200,0.100,1.000,General Lights,0.000,2766.309
 Lights Internal Gains Nominal, PERIMETER_BOT_ZN_2_LIGHTS,BLDG_LIGHT_SCH,PERIMETER_BOT_ZN_2,201.98,10.9,1782.715,8.826,163.984,0.000,0.700,0.200,0.100,1.000,General Lights,0.000,1782.715
 Lights Internal Gains Nominal, PERIMETER_BOT_ZN_1_LIGHTS,BLDG_LIGHT_SCH,PERIMETER_BOT_ZN_1,313.42,16.9,2766.370,8.826,163.984,0.000,0.700,0.200,0.100,1.000,General Lights,0.000,2766.370
 Lights Internal Gains Nominal, PERIMETER_BOT_ZN_4_LIGHTS,BLDG_LIGHT_SCH,PERIMETER_BOT_ZN_4,201.98,10.9,1782.715,8.826,163.984,0.000,0.700,0.200,0.100,1.000,General Lights,0.000,1782.715
 Lights Internal Gains Nominal, PERIMETER_MID_ZN_3_LIGHTS,BLDG_LIGHT_SCH,PERIMETER_MID_ZN_3,313.41,16.9,2766.309,8.826,163.984,0.000,0.700,0.200,0.100,1.000,General Lights,0.000,2766.309
 Lights Internal Gains Nominal, PERIMETER_MID_ZN_2_LIGHTS,BLDG_LIGHT_SCH,PERIMETER_MID_ZN_2,201.98,10.9,1782.715,8.826,163.984,0.000,0.700,0.200,0.100,1.000,General Lights,0.000,1782.715
 Lights Internal Gains Nominal, PERIMETER_MID_ZN_1_LIGHTS,BLDG_LIGHT_SCH,PERIMETER_MID_ZN_1,313.42,16.9,2766.370,8.826,163.984,0.000,0.700,0.200,0.100,1.000,General Lights,0.000,2766.370
 Lights Internal Gains Nominal, PERIMETER_MID_ZN_4_LIGHTS,BLDG_LIGHT_SCH,PERIMETER_MID_ZN_4,201.98,10.9,1782.715,8.826,163.984,0.000,0.700,0.200,0.100,1.000,General Lights,0.000,1782.715
 Lights Internal Gains Nominal, PERIMETER_TOP_ZN_3_LIGHTS,BLDG_LIGHT_SCH,PERIMETER_TOP_ZN_3,313.41,16.9,2766.309,8.826,163.984,0.000,0.700,0.200,0.100,1.000,General Lights,0.000,2766.309
 Lights Internal Gains Nominal, PERIMETER_TOP_ZN_2_LIGHTS,BLDG_LIGHT_SCH,PERIMETER_TOP_ZN_2,201.98,10.9,1782.715,8.826,163.984,0.000,0.700,0.200,0.100,1.000,General Lights,0.000,1782.715
 Lights Internal Gains Nominal, PERIMETER_TOP_ZN_1_LIGHTS,BLDG_LIGHT_SCH,PERIMETER_TOP_ZN_1,313.42,16.9,2766.370,8.826,163.984,0.000,0.700,0.200,0.100,1.000,General Lights,0.000,2766.370
 Lights Internal Gains Nominal, PERIMETER_TOP_ZN_4_LIGHTS,BLDG_LIGHT_SCH,PERIMETER_TOP_ZN_4,201.98,10.9,1782.715,8.826,163.984,0.000,0.700,0.200,0.100,1.000,General Lights,0.000,1782.715
 Lights Internal Gains Nominal, DATACENTER_BASEMENT_LIGHTS,BLDG_LIGHT_SCH,DATACENTER_BASEMENT_ZN_6,783.68,0.0,6917.073,8.826,N/A,0.000,0.700,0.200,0.100,1.000,DataCenter_Lights,0.000,6917.073
 Lights Internal Gains Nominal, DATACENTER_BOT_LIGHTS,BLDG_LIGHT_SCH,DATACENTER_BOT_ZN_6,36.20,0.0,319.540,8.826,N/A,0.000,0.700,0.200,0.100,1.000,DataCenter_Lights,0.000,319.540
 Lights Internal Gains Nominal, DATACENTER_MID_LIGHTS,BLDG_LIGHT_SCH,DATACENTER_MID_ZN_6,36.20,0.0,319.540,8.826,N/A,0.000,0.700,0.200,0.100,1.000,DataCenter_Lights,0.000,319.540
 Lights Internal Gains Nominal, DATACENTER_TOP_LIGHTS,BLDG_LIGHT_SCH,DATACENTER_TOP_ZN_6,36.20,0.0,319.540,8.826,N/A,0.000,0.700,0.200,0.100,1.000,DataCenter_Lights,0.000,319.540
! <ElectricEquipment Internal Gains Nominal>,Name,Schedule Name,Zone Name,Zone Floor Area {m2},# Zone Occupants,Equipment Level {W},Equipment/Floor Area {W/m2},Equipment per person {W/person},Fraction Latent,Fraction Radiant,Fraction Lost,Fraction Convected,End-Use SubCategory,Nominal Minimum Equipment Level {W},Nominal Maximum Equipment Level {W}
 ElectricEquipment Internal Gains Nominal, BASEMENT_MISCPLUG_EQUIP,ALWAYS_ON,BASEMENT,2779.43,149.6,13457.544,4.842,89.956,0.000,0.500,0.000,0.500,MiscPlug,13457.544,13457.544
 ElectricEquipment Internal Gains Nominal, CORE_BOTTOM_MISCPLUG_EQUIP,BLDG_EQUIP_SCH,CORE_BOTTOM,2496.12,134.4,20142.877,8.070,149.925,0.000,0.500,0.000,0.500,MiscPlug,0.000,20142.877
 ElectricEquipment Internal Gains Nominal, CORE_MID_MISCPLUG_EQUIP,BLDG_EQUIP_SCH,CORE_MID,2496.12,134.4,20142.800,8.070,149.924,0.000,0.500,0.000,0.500,MiscPlug,0.000,20142.800
 ElectricEquipment Internal Gains Nominal, CORE_TOP_MISCPLUG_EQUIP,BLDG_EQUIP_SCH,CORE_TOP,2496.12,134.4,20142.800,8.070,149.924,0.000,0.500,0.000,0.500,MiscPlug,0.000,20142.800
 ElectricEquipment Internal Gains Nominal, PERIMETER_BOT_ZN_3_MISCPLUG_EQUIP,BLDG_EQUIP_SCH,PERIMETER_BOT_ZN_3,313.41,16.9,2529.242,8.070,149.931,0.000,0.500,0.000,0.500,MiscPlug,0.000,2529.242
 ElectricEquipment Internal Gains Nominal, PERIMETER_BOT_ZN_2_MISCPLUG_EQUIP,BLDG_EQUIP_SCH,PERIMETER_BOT_ZN_2,201.98,10.9,1629.940,8.070,149.931,0.000,0.500,0.000,0.500,MiscPlug,0.000,1629.940
 ElectricEquipment Internal Gains Nominal, PERIMETER_BOT_ZN_1_MISCPLUG_EQUIP,BLDG_EQUIP_SCH,PERIMETER_BOT_ZN_1,313.42,16.9,2529.281,8.070,149.930,0.000,0.500,0.000,0.500,MiscPlug,0.000,2529.281
 ElectricEquipment Internal Gains Nominal, PERIMETER_BOT_ZN_4_MISCPLUG_EQUIP,BLDG_EQUIP_SCH,PERIMETER_BOT_ZN_4,201.98,10.9,1629.929,8.070,149.930,0.000,0.500,0.000,0.500,MiscPlug,0.000,1629.929
 ElectricEquipment Internal Gains Nominal, PERIMETER_MID_ZN_3_MISCPLUG_EQUIP,BLDG_EQUIP_SCH,PERIMETER_MID_ZN_3,313.41,16.9,2529.242,8.070,149.931,0.000,0.500,0.000,0.500,MiscPlug,0.000,2529.242
 ElectricEquipment Internal Gains Nominal, PERIMETER_MID_ZN_2_MISCPLUG_EQUIP,BLDG_EQUIP_SCH,PERIMETER_MID_ZN_2,201.98,10.9,1629.940,8.070,149.931,0.000,0.500,0.000,0.500,MiscPlug,0.000,1629.940
 ElectricEquipment Internal Gains Nominal, PERIMETER_MID_ZN_1_MISCPLUG_EQUIP,BLDG_EQUIP_SCH,PERIMETER_MID_ZN_1,313.42,16.9,2529.281,8.070,149.930,0.000,0.500,0.000,0.500,MiscPlug,0.000,2529.281
 ElectricEquipment Internal Gains Nominal, PERIMETER_MID_ZN_4_MISCPLUG_EQUIP,BLDG_EQUIP_SCH,PERIMETER_MID_ZN_4,201.98,10.9,1629.929,8.070,149.930,0.000,0.500,0.000,0.500,MiscPlug,0.000,1629.929
 ElectricEquipment Internal Gains Nominal, PERIMETER_TOP_ZN_3_MISCPLUG_EQUIP,BLDG_EQUIP_SCH,PERIMETER_TOP_ZN_3,313.41,16.9,2529.242,8.070,149.931,0.000,0.500,0.000,0.500,MiscPlug,0.000,2529.242
 ElectricEquipment Internal Gains Nominal, PERIMETER_TOP_ZN_2_MISCPLUG_EQUIP,BLDG_EQUIP_SCH,PERIMETER_TOP_ZN_2,201.98,10.9,1629.940,8.070,149.931,0.000,0.500,0.000,0.500,MiscPlug,0.000,1629.940
 ElectricEquipment Internal Gains Nominal, PERIMETER_TOP_ZN_1_MISCPLUG_EQUIP,BLDG_EQUIP_SCH,PERIMETER_TOP_ZN_1,313.42,16.9,2529.281,8.070,149.930,0.000,0.500,0.000,0.500,MiscPlug,0.000,2529.281
 ElectricEquipment Internal Gains Nominal, PERIMETER_TOP_ZN_4_MISCPLUG_EQUIP,BLDG_EQUIP_SCH,PERIMETER_TOP_ZN_4,201.98,10.9,1629.929,8.070,149.930,0.000,0.500,0.000,0.500,MiscPlug,0.000,1629.929
 ElectricEquipment Internal Gains Nominal, DATACENTER_BASEMENT_MISCPLUG_EQUIP,ALWAYS_ON,DATACENTER_BASEMENT_ZN_6,783.68,0.0,379632.522,484.423,N/A,0.000,0.500,0.000,0.500,DataCenter_PlugLoads,379632.522,379632.522
 ElectricEquipment Internal Gains Nominal, DATACENTER_BOT_MISCPLUG_EQUIP,ALWAYS_ON,DATACENTER_BOT_ZN_6,36.20,0.0,7794.422,215.299,N/A,0.000,0.500,0.000,0.500,DataCenter_PlugLoads,7794.422,7794.422
 ElectricEquipment Internal Gains Nominal, DATACENTER_MID_MISCPLUG_EQUIP,ALWAYS_ON,DATACENTER_MID_ZN_6,36.20,0.0,7794.422,215.299,N/A,0.000,0.500,0.000,0.500,DataCenter_PlugLoads,7794.422,7794.422
 ElectricEquipment Internal Gains Nominal, DATACENTER_TOP_MISCPLUG_EQUIP,ALWAYS_ON,DATACENTER_TOP_ZN_6,36.20,0.0,7794.422,215.299,N/A,0.000,0.500,0.000,0.500,DataCenter_PlugLoads,7794.422,7794.422
! <Construction CTF>,Construction Name,Index,#Layers,#CTFs,Time Step {hours},ThermalConductance {w/m2-K},OuterThermalAbsorptance,InnerThermalAbsorptance,OuterSolarAbsorptance,InnerSolarAbsorptance,Roughness
! <Material CTF Summary>,Material Name,Thickness {m},Conductivity {w/m-K},Density {kg/m3},Specific Heat {J/kg-K},ThermalResistance {m2-K/w}
! <Material:Air>,Material Name,ThermalResistance {m2-K/w}
! <CTF>,Time,Outside,Cross,Inside,Flux (except final one)
 Construction CTF,INTERIORFURNISHINGS,   1,   1,   7,   0.250,     0.8000    ,   0.900,   0.900,   0.700,   0.700,MediumSmooth
 Material CTF Summary,STD WOOD 6INCH,  0.1500,         0.120,    540.000,     1210.000,   1.250    
 CTF,   7,     -0.19879948E-01,      0.18371110E-08,     -0.19879948E-01,      0.25920384E-02
 CTF,   6,      0.37833182    ,      0.93111392E-06,      0.37833182    ,     -0.50805208E-01
 CTF,   5,      -2.8822885    ,      0.33090332E-04,      -2.8822885    ,      0.40100636    
 CTF,   4,       11.391948    ,      0.23980383E-03,       11.391948    ,      -1.6521297    
 CTF,   3,      -25.286828    ,      0.46344169E-03,      -25.286828    ,       3.8446603    
 CTF,   2,       31.657742    ,      0.23933549E-03,       31.657742    ,      -5.0707043    
 CTF,   1,      -20.807361    ,      0.25331892E-04,      -20.807361    ,       3.5241279    
 CTF,   0,       5.5693388    ,      0.18852057E-06,       5.5693388    
 Construction CTF,DROPCEILING,   3,   1,   3,   0.250,      4.488    ,   0.900,   0.900,   0.700,   0.700,MediumSmooth
 Material CTF Summary,AC02 ACOUSTIC CEILING,  0.0127,         0.057,    288.000,     1339.000,  0.2228    
 CTF,   3,     -0.53260828E-14,      0.38590732E-14,     -0.53260829E-14,       0.0000000    
 CTF,   2,      0.29572608E-03,      0.17480917E-03,      0.29572608E-03,     -0.50670342E-13
 CTF,   1,      -1.7155691    ,       1.0037059    ,      -1.7155691    ,      0.66704272E-03
 CTF,   0,       6.2004685    ,       3.4813145    ,       6.2004685    
 Construction CTF,INT_WALL,   6,   2,   4,   0.250,      6.299    ,   0.900,   0.900,   0.700,   0.700,Smooth
 Material CTF Summary,G01 13MM GYPSUM BOARD,  0.0127,         0.160,    800.000,     1090.000,  0.7937E-01
 Material CTF Summary,G01 13MM GYPSUM BOARD,  0.0127,         0.160,    800.000,     1090.000,  0.7937E-01
 CTF,   4,      0.12042566E-13,      0.45929688E-14,      0.12042579E-13,       0.0000000    
 CTF,   3,     -0.90043060E-05,      0.30474453E-05,     -0.90043060E-05,      0.18391453E-13
 CTF,   2,      0.23735444    ,      0.83694685E-01,      0.23735444    ,     -0.65848504E-05
 CTF,   1,      -8.4013897    ,       3.1829864    ,      -8.4013897    ,      0.83534042E-01
 CTF,   0,       13.937100    ,       2.5063712    ,       13.937100    
 Construction CTF,EXT_SLAB_8IN_WITH_CARPET,   7,   2,   7,   0.250,      3.285    ,   0.900,   0.900,   0.700,   0.700,MediumRough
 Material CTF Summary,200MM NORMALWEIGHT CONCRETE FLOOR,  0.2032,         2.310,   2322.000,      832.000,  0.8797E-01
 Material CTF Summary,CP02 CARPET PAD,  0.0000,         0.000,      0.000,        0.000,  0.2165    
 CTF,   7,     -0.10378937E-14,     -0.57568845E-15,     -0.49053640E-10,     -0.25280578E-17
 CTF,   6,      0.22253093E-02,      0.74852569E-07,      0.11525024E-03,     -0.21216748E-04
 CTF,   5,     -0.16504329    ,      0.46682053E-04,     -0.84513039E-02,      0.16388344E-02
 CTF,   4,       3.7453048    ,      0.21966331E-02,      0.19659200    ,     -0.39849567E-01
 CTF,   3,      -30.717465    ,      0.18038764E-01,      -1.7434326    ,      0.36581047    
 CTF,   2,       97.127517    ,      0.30720456E-01,       6.2408452    ,      -1.3453403    
 CTF,   1,      -123.02143    ,      0.96741016E-02,      -9.0622796    ,       1.9992282    
 CTF,   0,       53.089772    ,      0.20065040E-03,       4.4374874    
 Construction CTF,INT_SLAB_FLOOR,  11,   2,   6,   0.250,      3.839    ,   0.900,   0.900,   0.700,   0.700,MediumRough
 Material CTF Summary,100MM NORMALWEIGHT CONCRETE FLOOR,  0.1016,         2.310,   2322.000,      832.000,  0.4398E-01
 Material CTF Summary,CP02 CARPET PAD,  0.0000,         0.000,      0.000,        0.000,  0.2165    
 CTF,   6,      0.12620589E-13,      0.23342927E-14,      0.34773710E-15,      0.44665978E-16
 CTF,   5,     -0.24159609E-07,      0.13931939E-08,     -0.39969524E-09,      0.71956923E-12
 CTF,   4,      0.96276627E-03,      0.27481775E-04,      0.50620123E-05,     -0.15578040E-06
 CTF,   3,     -0.86089205    ,      0.12594216E-01,     -0.51311376E-02,      0.80173640E-03
 CTF,   2,       28.790752    ,      0.27225761    ,      0.51152910    ,     -0.10404061    
 CTF,   1,      -97.558265    ,      0.49524356    ,      -4.0761999    ,      0.88415844    
 CTF,   0,       70.468563    ,      0.60998910E-01,       4.4109175    
 Construction CTF,INT_SLAB_CEILING,  12,   2,   6,   0.250,      3.839    ,   0.900,   0.900,   0.700,   0.700,VeryRough
 Material CTF Summary,CP02 CARPET PAD,  0.0000,         0.000,      0.000,        0.000,  0.2165    
 Material CTF Summary,100MM NORMALWEIGHT CONCRETE FLOOR,  0.1016,         2.310,   2322.000,      832.000,  0.4398E-01
 CTF,   6,      0.34773710E-15,      0.23342927E-14,      0.12620589E-13,      0.44665978E-16
 CTF,   5,     -0.39969524E-09,      0.13931939E-08,     -0.24159609E-07,      0.71956923E-12
 CTF,   4,      0.50620123E-05,      0.27481775E-04,      0.96276627E-03,     -0.15578040E-06
 CTF,   3,     -0.51311376E-02,      0.12594216E-01,     -0.86089205    ,      0.80173640E-03
 CTF,   2,      0.51152910    ,      0.27225761    ,       28.790752    ,     -0.10404061    
 CTF,   1,      -4.0761999    ,      0.49524356    ,      -97.558265    ,      0.88415844    
 CTF,   0,       4.4109175    ,      0.60998910E-01,       70.468563    
 Construction CTF,BASEMENT_WALL,  13,   1,   5,   0.250,      6.526    ,   0.900,   0.900,   0.700,   0.700,MediumRough
 Material CTF Summary,M10 200MM CONCRETE BLOCK BASEMENT WALL,  0.2032,         1.326,   1842.000,      912.000,  0.1532    
 CTF,   5,     -0.23472675    ,      0.23045216E-04,     -0.23472675    ,      0.46636651E-02
 CTF,   4,       4.3077969    ,      0.31200261E-02,       4.3077969    ,     -0.90140179E-01
 CTF,   3,      -26.553507    ,      0.37635583E-01,      -26.553507    ,      0.59727399    
 CTF,   2,       69.642744    ,      0.80420193E-01,       69.642744    ,      -1.7156027    
 CTF,   1,      -79.811178    ,      0.30715331E-01,      -79.811178    ,       2.1803626    
 CTF,   0,       32.801847    ,      0.10626837E-02,       32.801847    
 Construction CTF,NONRES_ROOF,  16,   3,   3,   0.250,     0.2832    ,   0.750,   0.900,   0.450,   0.700,Rough
 Material CTF Summary,F13 BUILT-UP ROOFING,  0.0095,         0.160,   1120.000,     1460.000,  0.5938E-01
 Material CTF Summary,NONRES_ROOF_INSULATION,  0.0000,         0.000,      0.000,        0.000,   3.472    
 Material CTF Summary,F08 METAL SURFACE,  0.0008,        45.280,   7824.000,      500.000,  0.1767E-04
 CTF,   3,     -0.35220895E-09,      0.72417783E-12,     -0.21595966E-08,      0.53361663E-17
 CTF,   2,      0.23250724    ,      0.51892232E-03,      0.31562187    ,     -0.62105716E-09
 CTF,   1,      -15.914841    ,      0.10735060    ,      -3.8201505    ,      0.90765157E-01
 CTF,   0,       15.939791    ,      0.14958766    ,       3.7619858    
 Construction CTF,NONRES_EXT_WALL,  19,   3,   8,   0.250,      5.069    ,   0.900,   0.900,   0.700,   0.700,MediumRough
 Material CTF Summary,200MM NORMALWEIGHT CONCRETE WALL,  0.2032,         2.310,   2322.000,      832.000,  0.8797E-01
 Material CTF Summary,NONRES_EXTERIOR_WALL_INSULATION,  0.0000,         0.000,      0.000,        0.000,  0.2994E-01
 Material CTF Summary,G01 13MM GYPSUM BOARD,  0.0127,         0.160,    800.000,     1090.000,  0.7937E-01
 CTF,   8,      0.21762356E-14,      0.11635162E-14,      0.61020029E-07,     -0.43882607E-16
 CTF,   7,     -0.46456036E-05,      0.11747430E-08,     -0.11246643E-03,      0.44292545E-07
 CTF,   6,      0.27795354E-02,      0.24179424E-05,      0.88323424E-02,     -0.26637150E-04
 CTF,   5,     -0.17961285    ,      0.35469608E-03,     -0.23289687    ,      0.17925377E-02
 CTF,   4,       3.8271225    ,      0.84342767E-02,       2.5384154    ,     -0.40914341E-01
 CTF,   3,      -30.573672    ,      0.43197004E-01,      -12.681476    ,      0.36507574    
 CTF,   2,       96.147867    ,      0.49588030E-01,       30.615495    ,      -1.3317932    
 CTF,   1,      -122.20240    ,      0.10144056E-01,      -34.374158    ,       1.9838011    
 CTF,   0,       53.089765    ,      0.12449851E-03,       14.237746    
! <WindowConstruction>,Construction Name,Index,#Layers,Roughness,Conductance {W/m2-K},SHGC,Solar Transmittance at Normal Incidence,Visible Transmittance at Normal Incidence
! <WindowMaterial:Glazing>, Material Name, Optical Data Type, Spectral Data Set Name, Thickness {m}, Solar Transmittance,Front Solar Reflectance, Back Solar Reflectance, Visible Transmittance, Front Visible Reflectance,Back Visible Reflectance,Infrared Transmittance, Front Thermal Emissivity, Back Thermal Emissivity,Conductivity {W/m-K},Dirt Factor,Solar Diffusing
! <WindowMaterial:Gas>,Material Name,GasType,Thickness {m}
 WindowConstruction,WINDOW_U_1.22_SHGC_0.61,28,1,VerySmooth,5.778,0.623,0.487,0.749
 WindowMaterial:Glazing,GREEN 6MM,SpectralAverage,,6.00000E-003,0.48700,5.60000E-002,5.60000E-002,0.74900,7.00000E-002,7.00000E-002,0.00000,0.84000,0.84000,0.90000,1.00000,No
 WindowConstruction,WINDOW_U_1.22_SHGC_0.39,29,1,VerySmooth,5.067,0.400,0.241,0.301
 WindowMaterial:Glazing,REF B CLEAR HI 6MM,SpectralAverage,,6.00000E-003,0.24000,0.16000,0.32000,0.30000,0.16000,0.29000,0.00000,0.84000,0.60000,0.90000,1.00000,No
 WindowConstruction,WINDOW_U_1.22_SHGC_0.34,30,1,VerySmooth,4.913,0.365,0.201,0.221
 WindowMaterial:Glazing,REF C CLEAR HI 6MM,SpectralAverage,,6.00000E-003,0.20000,0.16000,0.39000,0.22000,0.17000,0.35000,0.00000,0.84000,0.55000,0.90000,1.00000,No
 WindowConstruction,WINDOW_U_1.22_SHGC_0.25,31,1,VerySmooth,5.778,0.306,9.905E-002,0.155
 WindowMaterial:Glazing,ECREF-1 COLORED 6MM,SpectralAverage,,6.00000E-003,9.90000E-002,0.21900,0.21900,0.15500,7.30000E-002,7.30000E-002,0.00000,0.84000,0.84000,0.90000,1.00000,No
 WindowConstruction,WINDOW_U_0.72_SHGC_0.25,32,1,VerySmooth,4.600,0.293,0.100,0.130
 WindowMaterial:Glazing,REF B TINT MID 6MM,SpectralAverage,,6.00000E-003,0.10000,0.11000,0.41000,0.13000,0.10000,0.32000,0.00000,0.84000,0.45000,0.90000,1.00000,No
 WindowConstruction,WINDOW_U_0.62_SHGC_0.39,33,3,VerySmooth,3.045,0.428,0.343,0.308
 WindowMaterial:Glazing,REF D CLEAR 6MM,SpectralAverage,,6.00000E-003,0.42900,0.30800,0.37900,0.33400,0.45300,0.50500,0.00000,0.84000,0.82000,0.90000,1.00000,No
 WindowMaterial:Gas,AIR 6MM,Air,6.300E-003
 WindowMaterial:Glazing,CLEAR 6MM,SpectralAverage,,6.00000E-003,0.77500,7.10000E-002,7.10000E-002,0.88100,8.00000E-002,8.00000E-002,0.00000,0.84000,0.84000,0.90000,1.00000,No
 WindowConstruction,WINDOW_U_0.57_SHGC_0.39,34,3,VerySmooth,3.045,0.428,0.343,0.308
 WindowMaterial:Glazing,REF D CLEAR 6MM,SpectralAverage,,6.00000E-003,0.42900,0.30800,0.37900,0.33400,0.45300,0.50500,0.00000,0.84000,0.82000,0.90000,1.00000,No
 WindowMaterial:Gas,AIR 6MM,Air,6.300E-003
 WindowMaterial:Glazing,CLEAR 6MM,SpectralAverage,,6.00000E-003,0.77500,7.10000E-002,7.10000E-002,0.88100,8.00000E-002,8.00000E-002,0.00000,0.84000,0.84000,0.90000,1.00000,No
 WindowConstruction,WINDOW_U_0.65_SHGC_0.25,35,3,VerySmooth,2.848,0.287,0.160,0.200
 WindowMaterial:Glazing,REF C CLEAR HI 6MM,SpectralAverage,,6.00000E-003,0.20000,0.16000,0.39000,0.22000,0.17000,0.35000,0.00000,0.84000,0.55000,0.90000,1.00000,No
 WindowMaterial:Gas,AIR 6MM,Air,6.300E-003
 WindowMaterial:Glazing,CLEAR 6MM,SpectralAverage,,6.00000E-003,0.77500,7.10000E-002,7.10000E-002,0.88100,8.00000E-002,8.00000E-002,0.00000,0.84000,0.84000,0.90000,1.00000,No
 WindowConstruction,WINDOW_U_0.62_SHGC_0.25,36,3,VerySmooth,2.848,0.287,0.160,0.200
 WindowMaterial:Glazing,REF C CLEAR HI 6MM,SpectralAverage,,6.00000E-003,0.20000,0.16000,0.39000,0.22000,0.17000,0.35000,0.00000,0.84000,0.55000,0.90000,1.00000,No
 WindowMaterial:Gas,AIR 6MM,Air,6.300E-003
 WindowMaterial:Glazing,CLEAR 6MM,SpectralAverage,,6.00000E-003,0.77500,7.10000E-002,7.10000E-002,0.88100,8.00000E-002,8.00000E-002,0.00000,0.84000,0.84000,0.90000,1.00000,No
 WindowConstruction,WINDOW_U_0.57_SHGC_0.25,37,3,VerySmooth,2.848,0.287,0.160,0.200
 WindowMaterial:Glazing,REF C CLEAR HI 6MM,SpectralAverage,,6.00000E-003,0.20000,0.16000,0.39000,0.22000,0.17000,0.35000,0.00000,0.84000,0.55000,0.90000,1.00000,No
 WindowMaterial:Gas,AIR 6MM,Air,6.300E-003
 WindowMaterial:Glazing,CLEAR 6MM,SpectralAverage,,6.00000E-003,0.77500,7.10000E-002,7.10000E-002,0.88100,8.00000E-002,8.00000E-002,0.00000,0.84000,0.84000,0.90000,1.00000,No
 WindowConstruction,WINDOW_U_0.62_SHGC_0.49,38,3,VerySmooth,3.058,0.502,0.373,0.505
 WindowMaterial:Glazing,BLUE 6MM,SpectralAverage,,6.00000E-003,0.48000,5.00000E-002,5.00000E-002,0.57000,6.00000E-002,6.00000E-002,0.00000,0.84000,0.84000,0.90000,1.00000,No
 WindowMaterial:Gas,AIR 6MM,Air,6.300E-003
 WindowMaterial:Glazing,CLEAR 6MM,SpectralAverage,,6.00000E-003,0.77500,7.10000E-002,7.10000E-002,0.88100,8.00000E-002,8.00000E-002,0.00000,0.84000,0.84000,0.90000,1.00000,No
 WindowConstruction,WINDOW_U_0.57_SHGC_0.49,39,3,VerySmooth,3.058,0.502,0.373,0.505
 WindowMaterial:Glazing,BLUE 6MM,SpectralAverage,,6.00000E-003,0.48000,5.00000E-002,5.00000E-002,0.57000,6.00000E-002,6.00000E-002,0.00000,0.84000,0.84000,0.90000,1.00000,No
 WindowMaterial:Gas,AIR 6MM,Air,6.300E-003
 WindowMaterial:Glazing,CLEAR 6MM,SpectralAverage,,6.00000E-003,0.77500,7.10000E-002,7.10000E-002,0.88100,8.00000E-002,8.00000E-002,0.00000,0.84000,0.84000,0.90000,1.00000,No
 WindowConstruction,WINDOW_U_0.52_SHGC_0.40,40,3,VerySmooth,2.653,0.426,0.343,0.308
 WindowMaterial:Glazing,REF D CLEAR 6MM,SpectralAverage,,6.00000E-003,0.42900,0.30800,0.37900,0.33400,0.45300,0.50500,0.00000,0.84000,0.82000,0.90000,1.00000,No
 WindowMaterial:Gas,AIR 13MM,Air,1.270E-002
 WindowMaterial:Glazing,CLEAR 6MM,SpectralAverage,,6.00000E-003,0.77500,7.10000E-002,7.10000E-002,0.88100,8.00000E-002,8.00000E-002,0.00000,0.84000,0.84000,0.90000,1.00000,No
 WindowConstruction,WINDOW_U_0.48_SHGC_0.40,41,3,VerySmooth,2.653,0.426,0.343,0.308
 WindowMaterial:Glazing,REF D CLEAR 6MM,SpectralAverage,,6.00000E-003,0.42900,0.30800,0.37900,0.33400,0.45300,0.50500,0.00000,0.84000,0.82000,0.90000,1.00000,No
 WindowMaterial:Gas,AIR 13MM,Air,1.270E-002
 WindowMaterial:Glazing,CLEAR 6MM,SpectralAverage,,6.00000E-003,0.77500,7.10000E-002,7.10000E-002,0.88100,8.00000E-002,8.00000E-002,0.00000,0.84000,0.84000,0.90000,1.00000,No
 WindowConstruction,WINDOW_U_0.42_SHGC_0.45,42,3,VerySmooth,2.493,0.426,0.343,0.308
 WindowMaterial:Glazing,REF D CLEAR 6MM,SpectralAverage,,6.00000E-003,0.42900,0.30800,0.37900,0.33400,0.45300,0.50500,0.00000,0.84000,0.82000,0.90000,1.00000,No
 WindowMaterial:Gas,ARGON 13MM,Argon,1.270E-002
 WindowMaterial:Glazing,CLEAR 6MM,SpectralAverage,,6.00000E-003,0.77500,7.10000E-002,7.10000E-002,0.88100,8.00000E-002,8.00000E-002,0.00000,0.84000,0.84000,0.90000,1.00000,No
 WindowConstruction,WINDOW_U_0.46_SHGC_0.45,43,3,VerySmooth,2.670,0.479,0.354,0.381
 WindowMaterial:Glazing,GREY 6MM,SpectralAverage,,6.00000E-003,0.45500,5.30000E-002,5.30000E-002,0.43100,5.20000E-002,5.20000E-002,0.00000,0.84000,0.84000,0.90000,1.00000,No
 WindowMaterial:Gas,AIR 13MM,Air,1.270E-002
 WindowMaterial:Glazing,CLEAR 6MM,SpectralAverage,,6.00000E-003,0.77500,7.10000E-002,7.10000E-002,0.88100,8.00000E-002,8.00000E-002,0.00000,0.84000,0.84000,0.90000,1.00000,No
 WindowConstruction,WINDOW_U_0.42_SHGC_0.40,44,3,VerySmooth,2.371,0.397,0.284,0.444
 WindowMaterial:Glazing,LOE TINT 6MM,SpectralAverage,,6.00000E-003,0.36000,9.30000E-002,0.20000,0.50000,3.50000E-002,5.40000E-002,0.00000,0.84000,0.10000,0.90000,1.00000,No
 WindowMaterial:Gas,AIR 6MM,Air,6.300E-003
 WindowMaterial:Glazing,CLEAR 6MM,SpectralAverage,,6.00000E-003,0.77500,7.10000E-002,7.10000E-002,0.88100,8.00000E-002,8.00000E-002,0.00000,0.84000,0.84000,0.90000,1.00000,No
 WindowConstruction,WINDOW_U_0.43_SHGC_0.26,45,3,VerySmooth,2.447,0.305,0.191,0.271
 WindowMaterial:Glazing,REF B CLEAR HI 6MM,SpectralAverage,,6.00000E-003,0.24000,0.16000,0.32000,0.30000,0.16000,0.29000,0.00000,0.84000,0.60000,0.90000,1.00000,No
 WindowMaterial:Gas,AIR 13MM,Air,1.270E-002
 WindowMaterial:Glazing,CLEAR 6MM,SpectralAverage,,6.00000E-003,0.77500,7.10000E-002,7.10000E-002,0.88100,8.00000E-002,8.00000E-002,0.00000,0.84000,0.84000,0.90000,1.00000,No
 WindowConstruction,WINDOW_U_0.44_SHGC_0.26,46,3,VerySmooth,2.447,0.305,0.191,0.271
 WindowMaterial:Glazing,REF B CLEAR HI 6MM,SpectralAverage,,6.00000E-003,0.24000,0.16000,0.32000,0.30000,0.16000,0.29000,0.00000,0.84000,0.60000,0.90000,1.00000,No
 WindowMaterial:Gas,AIR 13MM,Air,1.270E-002
 WindowMaterial:Glazing,CLEAR 6MM,SpectralAverage,,6.00000E-003,0.77500,7.10000E-002,7.10000E-002,0.88100,8.00000E-002,8.00000E-002,0.00000,0.84000,0.84000,0.90000,1.00000,No
 WindowConstruction,WINDOW_U_0.42_SHGC_0.35,47,3,VerySmooth,2.371,0.397,0.284,0.444
 WindowMaterial:Glazing,LOE TINT 6MM,SpectralAverage,,6.00000E-003,0.36000,9.30000E-002,0.20000,0.50000,3.50000E-002,5.40000E-002,0.00000,0.84000,0.10000,0.90000,1.00000,No
 WindowMaterial:Gas,AIR 6MM,Air,6.300E-003
 WindowMaterial:Glazing,CLEAR 6MM,SpectralAverage,,6.00000E-003,0.77500,7.10000E-002,7.10000E-002,0.88100,8.00000E-002,8.00000E-002,0.00000,0.84000,0.84000,0.90000,1.00000,No
 WindowConstruction,WINDOW_U_0.33_SHGC_0.40,48,3,VerySmooth,1.761,0.380,0.284,0.444
 WindowMaterial:Glazing,LOE TINT 6MM,SpectralAverage,,6.00000E-003,0.36000,9.30000E-002,0.20000,0.50000,3.50000E-002,5.40000E-002,0.00000,0.84000,0.10000,0.90000,1.00000,No
 WindowMaterial:Gas,AIR 13MM,Air,1.270E-002
 WindowMaterial:Glazing,CLEAR 6MM,SpectralAverage,,6.00000E-003,0.77500,7.10000E-002,7.10000E-002,0.88100,8.00000E-002,8.00000E-002,0.00000,0.84000,0.84000,0.90000,1.00000,No
 WindowConstruction,WINDOW_U_0.34_SHGC_0.40,49,3,VerySmooth,1.761,0.380,0.284,0.444
 WindowMaterial:Glazing,LOE TINT 6MM,SpectralAverage,,6.00000E-003,0.36000,9.30000E-002,0.20000,0.50000,3.50000E-002,5.40000E-002,0.00000,0.84000,0.10000,0.90000,1.00000,No
 WindowMaterial:Gas,AIR 13MM,Air,1.270E-002
 WindowMaterial:Glazing,CLEAR 6MM,SpectralAverage,,6.00000E-003,0.77500,7.10000E-002,7.10000E-002,0.88100,8.00000E-002,8.00000E-002,0.00000,0.84000,0.84000,0.90000,1.00000,No
 WindowConstruction,WINDOW_U_0.35_SHGC_0.35,50,3,VerySmooth,1.761,0.380,0.284,0.444
 WindowMaterial:Glazing,LOE TINT 6MM,SpectralAverage,,6.00000E-003,0.36000,9.30000E-002,0.20000,0.50000,3.50000E-002,5.40000E-002,0.00000,0.84000,0.10000,0.90000,1.00000,No
 WindowMaterial:Gas,AIR 13MM,Air,1.270E-002
 WindowMaterial:Glazing,CLEAR 6MM,SpectralAverage,,6.00000E-003,0.77500,7.10000E-002,7.10000E-002,0.88100,8.00000E-002,8.00000E-002,0.00000,0.84000,0.84000,0.90000,1.00000,No
 WindowConstruction,WINDOW_U_0.55_SHGC_0.31,51,3,VerySmooth,3.045,0.368,0.239,0.229
 WindowMaterial:Glazing,REF D TINT 6MM,SpectralAverage,,6.00000E-003,0.30000,0.14000,0.36000,0.25000,0.18000,0.45000,0.00000,0.84000,0.82000,0.90000,1.00000,No
 WindowMaterial:Gas,AIR 6MM,Air,6.300E-003
 WindowMaterial:Glazing,CLEAR 6MM,SpectralAverage,,6.00000E-003,0.77500,7.10000E-002,7.10000E-002,0.88100,8.00000E-002,8.00000E-002,0.00000,0.84000,0.84000,0.90000,1.00000,No
 WindowConstruction,WINDOW_U_0.43_SHGC_0.29,52,3,VerySmooth,2.272,0.313,0.208,0.408
 WindowMaterial:Glazing,LOE SPEC SEL TINT 6MM,SpectralAverage,,6.00000E-003,0.26000,0.14000,0.41000,0.46000,6.00000E-002,4.00000E-002,0.00000,0.84000,3.00000E-002,0.90000,1.00000,No
 WindowMaterial:Gas,AIR 6MM,Air,6.300E-003
 WindowMaterial:Glazing,CLEAR 6MM,SpectralAverage,,6.00000E-003,0.77500,7.10000E-002,7.10000E-002,0.88100,8.00000E-002,8.00000E-002,0.00000,0.84000,0.84000,0.90000,1.00000,No
 WindowConstruction,WINDOW_U_0.34_SHGC_0.45,53,3,VerySmooth,1.932,0.634,0.531,0.721
 WindowMaterial:Glazing,PYR B CLEAR 6MM,SpectralAverage,,6.00000E-003,0.68000,9.00000E-002,0.10000,0.81000,0.11000,0.12000,0.00000,0.84000,0.20000,0.90000,1.00000,No
 WindowMaterial:Gas,AIR 13MM,Air,1.270E-002
 WindowMaterial:Glazing,CLEAR 6MM,SpectralAverage,,6.00000E-003,0.77500,7.10000E-002,7.10000E-002,0.88100,8.00000E-002,8.00000E-002,0.00000,0.84000,0.84000,0.90000,1.00000,No
 WindowConstruction,WINDOW_U_0.56_SHGC_0.35,54,3,VerySmooth,3.045,0.368,0.239,0.229
 WindowMaterial:Glazing,REF D TINT 6MM,SpectralAverage,,6.00000E-003,0.30000,0.14000,0.36000,0.25000,0.18000,0.45000,0.00000,0.84000,0.82000,0.90000,1.00000,No
 WindowMaterial:Gas,AIR 6MM,Air,6.300E-003
 WindowMaterial:Glazing,CLEAR 6MM,SpectralAverage,,6.00000E-003,0.77500,7.10000E-002,7.10000E-002,0.88100,8.00000E-002,8.00000E-002,0.00000,0.84000,0.84000,0.90000,1.00000,No
 WindowConstruction,WINDOW_U_0.45_SHGC_0.31,55,3,VerySmooth,2.447,0.305,0.191,0.271
 WindowMaterial:Glazing,REF B CLEAR HI 6MM,SpectralAverage,,6.00000E-003,0.24000,0.16000,0.32000,0.30000,0.16000,0.29000,0.00000,0.84000,0.60000,0.90000,1.00000,No
 WindowMaterial:Gas,AIR 13MM,Air,1.270E-002
 WindowMaterial:Glazing,CLEAR 6MM,SpectralAverage,,6.00000E-003,0.77500,7.10000E-002,7.10000E-002,0.88100,8.00000E-002,8.00000E-002,0.00000,0.84000,0.84000,0.90000,1.00000,No
 WindowConstruction,WINDOW_U_0.33_SHGC_0.45,56,5,VerySmooth,1.745,0.462,0.377,0.637
 WindowMaterial:Glazing,CLEAR 3MM,SpectralAverage,,3.00000E-003,0.83700,7.50000E-002,7.50000E-002,0.89800,8.10000E-002,8.10000E-002,0.00000,0.84000,0.84000,0.90000,1.00000,No
 WindowMaterial:Gas,AIR 6MM,Air,6.300E-003
 WindowMaterial:Glazing,COATED POLY-77,SpectralAverage,,5.10000E-004,0.50400,0.40200,0.39800,0.76600,0.14700,0.16700,0.00000,7.50000E-002,0.72000,0.14000,1.00000,No
 WindowMaterial:Gas,AIR 6MM,Air,6.300E-003
 WindowMaterial:Glazing,CLEAR 3MM,SpectralAverage,,3.00000E-003,0.83700,7.50000E-002,7.50000E-002,0.89800,8.10000E-002,8.10000E-002,0.00000,0.84000,0.84000,0.90000,1.00000,No
 WindowConstruction,WINDOW_U_0.38_SHGC_0.26,57,3,VerySmooth,2.267,0.242,0.119,0.163
 WindowMaterial:Glazing,REF B TINT HI 6MM,SpectralAverage,,6.00000E-003,0.15000,9.00000E-002,0.33000,0.18000,8.00000E-002,0.28000,0.00000,0.84000,0.60000,0.90000,1.00000,No
 WindowMaterial:Gas,ARGON 13MM,Argon,1.270E-002
 WindowMaterial:Glazing,CLEAR 6MM,SpectralAverage,,6.00000E-003,0.77500,7.10000E-002,7.10000E-002,0.88100,8.00000E-002,8.00000E-002,0.00000,0.84000,0.84000,0.90000,1.00000,No
 WindowConstruction,WINDOW_U_0.25_SHGC_0.40,58,3,VerySmooth,1.493,0.373,0.284,0.444
 WindowMaterial:Glazing,LOE TINT 6MM,SpectralAverage,,6.00000E-003,0.36000,9.30000E-002,0.20000,0.50000,3.50000E-002,5.40000E-002,0.00000,0.84000,0.10000,0.90000,1.00000,No
 WindowMaterial:Gas,ARGON 13MM,Argon,1.270E-002
 WindowMaterial:Glazing,CLEAR 6MM,SpectralAverage,,6.00000E-003,0.77500,7.10000E-002,7.10000E-002,0.88100,8.00000E-002,8.00000E-002,0.00000,0.84000,0.84000,0.90000,1.00000,No
 WindowConstruction,WINDOW_U_0.35_SHGC_0.26,59,3,VerySmooth,2.158,0.238,0.136,0.173
 WindowMaterial:Glazing,REF C CLEAR MID 6MM,SpectralAverage,,6.00000E-003,0.17000,0.20000,0.42000,0.19000,0.21000,0.38000,0.00000,0.84000,0.51000,0.90000,1.00000,No
 WindowMaterial:Gas,ARGON 13MM,Argon,1.270E-002
 WindowMaterial:Glazing,CLEAR 6MM,SpectralAverage,,6.00000E-003,0.77500,7.10000E-002,7.10000E-002,0.88100,8.00000E-002,8.00000E-002,0.00000,0.84000,0.84000,0.90000,1.00000,No
 WindowConstruction,WINDOW_U_0.54_SHGC_0.27,60,3,VerySmooth,2.848,0.287,0.160,0.200
 WindowMaterial:Glazing,REF C CLEAR HI 6MM,SpectralAverage,,6.00000E-003,0.20000,0.16000,0.39000,0.22000,0.17000,0.35000,0.00000,0.84000,0.55000,0.90000,1.00000,No
 WindowMaterial:Gas,AIR 6MM,Air,6.300E-003
 WindowMaterial:Glazing,CLEAR 6MM,SpectralAverage,,6.00000E-003,0.77500,7.10000E-002,7.10000E-002,0.88100,8.00000E-002,8.00000E-002,0.00000,0.84000,0.84000,0.90000,1.00000,No
 WindowConstruction,WINDOW_U_0.54_SHGC_0.18,61,3,VerySmooth,2.779,0.187,4.810E-002,8.185E-002
 WindowMaterial:Glazing,REF A TINT MID 6MM,SpectralAverage,,6.00000E-003,6.00000E-002,0.13000,0.42000,9.00000E-002,0.14000,0.35000,0.00000,0.84000,0.47000,0.90000,1.00000,No
 WindowMaterial:Gas,AIR 6MM,Air,6.300E-003
 WindowMaterial:Glazing,CLEAR 6MM,SpectralAverage,,6.00000E-003,0.77500,7.10000E-002,7.10000E-002,0.88100,8.00000E-002,8.00000E-002,0.00000,0.84000,0.84000,0.90000,1.00000,No
 WindowConstruction,WINDOW_U_0.54_SHGC_0.13,62,3,VerySmooth,2.219,0.138,5.319E-002,7.288E-002
 WindowMaterial:Glazing,REF A CLEAR LO 6MM,SpectralAverage,,6.00000E-003,6.60000E-002,0.34100,0.49300,8.00000E-002,0.41000,0.37000,0.00000,0.84000,0.40000,0.90000,1.00000,No
 WindowMaterial:Gas,AIR 13MM,Air,1.270E-002
 WindowMaterial:Glazing,CLEAR 6MM,SpectralAverage,,6.00000E-003,0.77500,7.10000E-002,7.10000E-002,0.88100,8.00000E-002,8.00000E-002,0.00000,0.84000,0.84000,0.90000,1.00000,No
 WindowConstruction,WINDOW_U_0.33_SHGC_0.11,63,3,VerySmooth,1.614,0.119,4.705E-002,0.120
 WindowMaterial:Glazing,ECREF-2 COLORED 6MM,SpectralAverage,,6.00000E-003,9.90000E-002,0.21900,0.21900,0.15500,7.30000E-002,7.30000E-002,0.00000,0.84000,0.10000,0.90000,1.00000,No
 WindowMaterial:Gas,AIR 13MM,Air,1.270E-002
 WindowMaterial:Glazing,LOE SPEC SEL CLEAR 6MM REV,SpectralAverage,,6.00000E-003,0.43000,0.42000,0.30000,0.77000,6.00000E-002,7.00000E-002,0.00000,3.00000E-002,0.84000,0.90000,1.00000,No
 WindowConstruction,WINDOW_U_0.29_SHGC_0.22,64,5,VerySmooth,1.703,0.234,0.129,0.274
 WindowMaterial:Glazing,BRONZE 6MM,SpectralAverage,,6.00000E-003,0.48200,5.40000E-002,5.40000E-002,0.53400,5.70000E-002,5.70000E-002,0.00000,0.84000,0.84000,0.90000,1.00000,No
 WindowMaterial:Gas,AIR 6MM,Air,6.300E-003
 WindowMaterial:Glazing,COATED POLY-55,SpectralAverage,,5.10000E-004,0.32000,0.58200,0.59300,0.55100,0.33600,0.37500,0.00000,4.60000E-002,0.72000,0.14000,1.00000,No
 WindowMaterial:Gas,AIR 6MM,Air,6.300E-003
 WindowMaterial:Glazing,CLEAR 6MM,SpectralAverage,,6.00000E-003,0.77500,7.10000E-002,7.10000E-002,0.88100,8.00000E-002,8.00000E-002,0.00000,0.84000,0.84000,0.90000,1.00000,No
 WindowConstruction,WINDOW_U_0.29_SHGC_0.17,65,3,VerySmooth,1.761,0.169,8.718E-002,0.114
 WindowMaterial:Glazing,ECABS-2 COLORED 6MM,SpectralAverage,,6.00000E-003,0.11100,0.17900,0.17900,0.12800,8.10000E-002,8.10000E-002,0.00000,0.84000,0.10000,0.90000,1.00000,No
 WindowMaterial:Gas,AIR 13MM,Air,1.270E-002
 WindowMaterial:Glazing,CLEAR 6MM,SpectralAverage,,6.00000E-003,0.77500,7.10000E-002,7.10000E-002,0.88100,8.00000E-002,8.00000E-002,0.00000,0.84000,0.84000,0.90000,1.00000,No
 WindowConstruction,WINDOW_U_0.29_SHGC_0.11,66,3,VerySmooth,1.614,0.119,4.705E-002,0.120
 WindowMaterial:Glazing,ECREF-2 COLORED 6MM,SpectralAverage,,6.00000E-003,9.90000E-002,0.21900,0.21900,0.15500,7.30000E-002,7.30000E-002,0.00000,0.84000,0.10000,0.90000,1.00000,No
 WindowMaterial:Gas,AIR 13MM,Air,1.270E-002
 WindowMaterial:Glazing,LOE SPEC SEL CLEAR 6MM REV,SpectralAverage,,6.00000E-003,0.43000,0.42000,0.30000,0.77000,6.00000E-002,7.00000E-002,0.00000,3.00000E-002,0.84000,0.90000,1.00000,No
 WindowConstruction,WINDOW_U_0.24_SHGC_0.23,67,3,VerySmooth,1.333,0.283,0.208,0.408
 WindowMaterial:Glazing,LOE SPEC SEL TINT 6MM,SpectralAverage,,6.00000E-003,0.26000,0.14000,0.41000,0.46000,6.00000E-002,4.00000E-002,0.00000,0.84000,3.00000E-002,0.90000,1.00000,No
 WindowMaterial:Gas,ARGON 13MM,Argon,1.270E-002
 WindowMaterial:Glazing,CLEAR 6MM,SpectralAverage,,6.00000E-003,0.77500,7.10000E-002,7.10000E-002,0.88100,8.00000E-002,8.00000E-002,0.00000,0.84000,0.84000,0.90000,1.00000,No
 WindowConstruction,WINDOW_U_0.24_SHGC_0.16,68,3,VerySmooth,1.493,0.158,8.718E-002,0.114
 WindowMaterial:Glazing,ECABS-2 COLORED 6MM,SpectralAverage,,6.00000E-003,0.11100,0.17900,0.17900,0.12800,8.10000E-002,8.10000E-002,0.00000,0.84000,0.10000,0.90000,1.00000,No
 WindowMaterial:Gas,ARGON 13MM,Argon,1.270E-002
 WindowMaterial:Glazing,CLEAR 6MM,SpectralAverage,,6.00000E-003,0.77500,7.10000E-002,7.10000E-002,0.88100,8.00000E-002,8.00000E-002,0.00000,0.84000,0.84000,0.90000,1.00000,No
 WindowConstruction,WINDOW_U_0.24_SHGC_0.11,69,3,VerySmooth,1.318,0.115,5.180E-002,9.912E-002
 WindowMaterial:Glazing,ECABS-2 COLORED 6MM,SpectralAverage,,6.00000E-003,0.11100,0.17900,0.17900,0.12800,8.10000E-002,8.10000E-002,0.00000,0.84000,0.10000,0.90000,1.00000,No
 WindowMaterial:Gas,ARGON 13MM,Argon,1.270E-002
 WindowMaterial:Glazing,LOE SPEC SEL CLEAR 6MM REV,SpectralAverage,,6.00000E-003,0.43000,0.42000,0.30000,0.77000,6.00000E-002,7.00000E-002,0.00000,3.00000E-002,0.84000,0.90000,1.00000,No
 WindowConstruction,WINDOW_U_0.19_SHGC_0.20,70,5,VerySmooth,1.208,0.222,0.129,0.274
 WindowMaterial:Glazing,BRONZE 6MM,SpectralAverage,,6.00000E-003,0.48200,5.40000E-002,5.40000E-002,0.53400,5.70000E-002,5.70000E-002,0.00000,0.84000,0.84000,0.90000,1.00000,No
 WindowMaterial:Gas,AIR 13MM,Air,1.270E-002
 WindowMaterial:Glazing,COATED POLY-55,SpectralAverage,,5.10000E-004,0.32000,0.58200,0.59300,0.55100,0.33600,0.37500,0.00000,4.60000E-002,0.72000,0.14000,1.00000,No
 WindowMaterial:Gas,AIR 13MM,Air,1.270E-002
 WindowMaterial:Glazing,CLEAR 6MM,SpectralAverage,,6.00000E-003,0.77500,7.10000E-002,7.10000E-002,0.88100,8.00000E-002,8.00000E-002,0.00000,0.84000,0.84000,0.90000,1.00000,No
 WindowConstruction,WINDOW_U_0.71_SHGC_0.25,71,3,VerySmooth,2.848,0.287,0.160,0.200
 WindowMaterial:Glazing,REF C CLEAR HI 6MM,SpectralAverage,,6.00000E-003,0.20000,0.16000,0.39000,0.22000,0.17000,0.35000,0.00000,0.84000,0.55000,0.90000,1.00000,No
 WindowMaterial:Gas,AIR 6MM,Air,6.300E-003
 WindowMaterial:Glazing,CLEAR 6MM,SpectralAverage,,6.00000E-003,0.77500,7.10000E-002,7.10000E-002,0.88100,8.00000E-002,8.00000E-002,0.00000,0.84000,0.84000,0.90000,1.00000,No
 WindowConstruction,WINDOW_U_0.38_SHGC_0.30,72,3,VerySmooth,2.267,0.300,0.191,0.271
 WindowMaterial:Glazing,REF B CLEAR HI 6MM,SpectralAverage,,6.00000E-003,0.24000,0.16000,0.32000,0.30000,0.16000,0.29000,0.00000,0.84000,0.60000,0.90000,1.00000,No
 WindowMaterial:Gas,ARGON 13MM,Argon,1.270E-002
 WindowMaterial:Glazing,CLEAR 6MM,SpectralAverage,,6.00000E-003,0.77500,7.10000E-002,7.10000E-002,0.88100,8.00000E-002,8.00000E-002,0.00000,0.84000,0.84000,0.90000,1.00000,No
 WindowConstruction,WINDOW_U_0.36_SHGC_0.35,73,3,VerySmooth,2.272,0.313,0.208,0.408
 WindowMaterial:Glazing,LOE SPEC SEL TINT 6MM,SpectralAverage,,6.00000E-003,0.26000,0.14000,0.41000,0.46000,6.00000E-002,4.00000E-002,0.00000,0.84000,3.00000E-002,0.90000,1.00000,No
 WindowMaterial:Gas,AIR 6MM,Air,6.300E-003
 WindowMaterial:Glazing,CLEAR 6MM,SpectralAverage,,6.00000E-003,0.77500,7.10000E-002,7.10000E-002,0.88100,8.00000E-002,8.00000E-002,0.00000,0.84000,0.84000,0.90000,1.00000,No
 WindowConstruction,WINDOW_U_0.30_SHGC_0.40,74,3,VerySmooth,1.761,0.380,0.284,0.444
 WindowMaterial:Glazing,LOE TINT 6MM,SpectralAverage,,6.00000E-003,0.36000,9.30000E-002,0.20000,0.50000,3.50000E-002,5.40000E-002,0.00000,0.84000,0.10000,0.90000,1.00000,No
 WindowMaterial:Gas,AIR 13MM,Air,1.270E-002
 WindowMaterial:Glazing,CLEAR 6MM,SpectralAverage,,6.00000E-003,0.77500,7.10000E-002,7.10000E-002,0.88100,8.00000E-002,8.00000E-002,0.00000,0.84000,0.84000,0.90000,1.00000,No
 WindowConstruction,WINDOW_U_1.98_SHGC_0.36,75,1,VerySmooth,5.067,0.400,0.241,0.301
 WindowMaterial:Glazing,REF B CLEAR HI 6MM,SpectralAverage,,6.00000E-003,0.24000,0.16000,0.32000,0.30000,0.16000,0.29000,0.00000,0.84000,0.60000,0.90000,1.00000,No
 WindowConstruction,WINDOW_U_1.17_SHGC_0.39,76,1,VerySmooth,5.067,0.400,0.241,0.301
 WindowMaterial:Glazing,REF B CLEAR HI 6MM,SpectralAverage,,6.00000E-003,0.24000,0.16000,0.32000,0.30000,0.16000,0.29000,0.00000,0.84000,0.60000,0.90000,1.00000,No
 WindowConstruction,WINDOW_U_1.98_SHGC_0.61,77,1,VerySmooth,5.778,0.623,0.487,0.749
 WindowMaterial:Glazing,GREEN 6MM,SpectralAverage,,6.00000E-003,0.48700,5.60000E-002,5.60000E-002,0.74900,7.00000E-002,7.00000E-002,0.00000,0.84000,0.84000,0.90000,1.00000,No
 WindowConstruction,WINDOW_U_1.17_SHGC_0.49,78,1,VerySmooth,5.720,0.506,0.431,0.335
 WindowMaterial:Glazing,REF D CLEAR 6MM,SpectralAverage,,6.00000E-003,0.42900,0.30800,0.37900,0.33400,0.45300,0.50500,0.00000,0.84000,0.82000,0.90000,1.00000,No
 WindowConstruction,WINDOW_U_1.17_SHGC_0.68,79,1,VerySmooth,5.894,0.722,0.635,0.822
 WindowMaterial:Glazing,GREEN 3MM,SpectralAverage,,3.00000E-003,0.63500,6.30000E-002,6.30000E-002,0.82200,7.50000E-002,7.50000E-002,0.00000,0.84000,0.84000,0.90000,1.00000,No
 WindowConstruction,WINDOW_U_0.98_SHGC_0.45,80,1,VerySmooth,5.067,0.400,0.241,0.301
 WindowMaterial:Glazing,REF B CLEAR HI 6MM,SpectralAverage,,6.00000E-003,0.24000,0.16000,0.32000,0.30000,0.16000,0.29000,0.00000,0.84000,0.60000,0.90000,1.00000,No
 WindowConstruction,WINDOW_U_0.98_SHGC_0.68,81,1,VerySmooth,5.067,0.400,0.241,0.301
 WindowMaterial:Glazing,REF B CLEAR HI 6MM,SpectralAverage,,6.00000E-003,0.24000,0.16000,0.32000,0.30000,0.16000,0.29000,0.00000,0.84000,0.60000,0.90000,1.00000,No
 WindowConstruction,WINDOW_U_0.88_SHGC_0.16,82,1,VerySmooth,4.440,0.202,6.623E-002,8.028E-002
 WindowMaterial:Glazing,REF A CLEAR LO 6MM,SpectralAverage,,6.00000E-003,6.60000E-002,0.34100,0.49300,8.00000E-002,0.41000,0.37000,0.00000,0.84000,0.40000,0.90000,1.00000,No
 WindowConstruction,WINDOW_U_0.88_SHGC_0.27,83,1,VerySmooth,5.778,0.306,9.905E-002,0.155
 WindowMaterial:Glazing,ECREF-1 COLORED 6MM,SpectralAverage,,6.00000E-003,9.90000E-002,0.21900,0.21900,0.15500,7.30000E-002,7.30000E-002,0.00000,0.84000,0.84000,0.90000,1.00000,No
 WindowConstruction,WINDOW_U_0.52_SHGC_0.22,84,3,VerySmooth,2.872,0.241,0.120,0.182
 WindowMaterial:Glazing,REF B CLEAR LO 6MM,SpectralAverage,,6.00000E-003,0.15000,0.22000,0.38000,0.20000,0.23000,0.33000,0.00000,0.84000,0.58000,0.90000,1.00000,No
 WindowMaterial:Gas,AIR 6MM,Air,6.300E-003
 WindowMaterial:Glazing,CLEAR 6MM,SpectralAverage,,6.00000E-003,0.77500,7.10000E-002,7.10000E-002,0.88100,8.00000E-002,8.00000E-002,0.00000,0.84000,0.84000,0.90000,1.00000,No
 WindowConstruction,WINDOW_U_0.44_SHGC_0.20,85,3,VerySmooth,2.447,0.248,0.119,0.163
 WindowMaterial:Glazing,REF B TINT HI 6MM,SpectralAverage,,6.00000E-003,0.15000,9.00000E-002,0.33000,0.18000,8.00000E-002,0.28000,0.00000,0.84000,0.60000,0.90000,1.00000,No
 WindowMaterial:Gas,AIR 13MM,Air,1.270E-002
 WindowMaterial:Glazing,CLEAR 6MM,SpectralAverage,,6.00000E-003,0.77500,7.10000E-002,7.10000E-002,0.88100,8.00000E-002,8.00000E-002,0.00000,0.84000,0.84000,0.90000,1.00000,No
 WindowConstruction,WINDOW_U_0.39_SHGC_0.38,86,1,VerySmooth,2.193,0.395,0.375,0.530
 WindowMaterial:Glazing,THEORETICAL GLASS 297,SpectralAverage,,3.00000E-003,0.37504,0.57496,0.57496,0.52970,0.42030,0.42030,0.00000,0.90000,0.90000,1.03561E-002,1.00000,No
 WindowConstruction,WINDOW_U_0.39_SHGC_0.32,87,1,VerySmooth,2.194,0.336,0.315,0.480
 WindowMaterial:Glazing,THEORETICAL GLASS 347,SpectralAverage,,3.00000E-003,0.31586,0.63414,0.63414,0.47991,0.47009,0.47009,0.00000,0.90000,0.90000,1.03580E-002,1.00000,No
 WindowConstruction,WINDOW_U_0.75_SHGC_0.72,88,1,VerySmooth,3.779,0.720,0.680,0.811
 WindowMaterial:Glazing,PYR B CLEAR 6MM,SpectralAverage,,6.00000E-003,0.68000,9.00000E-002,0.10000,0.81000,0.11000,0.12000,0.00000,0.84000,0.20000,0.90000,1.00000,No
 WindowConstruction,WINDOW_U_0.67_SHGC_0.77,89,1,VerySmooth,3.835,0.768,0.741,0.821
 WindowMaterial:Glazing,PYR B CLEAR 3MM,SpectralAverage,,3.00000E-003,0.74000,9.00000E-002,0.10000,0.82000,0.11000,0.12000,0.00000,0.84000,0.20000,0.90000,1.00000,No
 WindowConstruction,WINDOW_U_0.56_SHGC_0.76,90,3,VerySmooth,3.122,0.762,0.705,0.812
 WindowMaterial:Glazing,CLEAR 3MM,SpectralAverage,,3.00000E-003,0.83700,7.50000E-002,7.50000E-002,0.89800,8.10000E-002,8.10000E-002,0.00000,0.84000,0.84000,0.90000,1.00000,No
 WindowMaterial:Gas,AIR 6MM,Air,6.300E-003
 WindowMaterial:Glazing,CLEAR 3MM,SpectralAverage,,3.00000E-003,0.83700,7.50000E-002,7.50000E-002,0.89800,8.10000E-002,8.10000E-002,0.00000,0.84000,0.84000,0.90000,1.00000,No
 WindowConstruction,WINDOW_U_0.40_SHGC_0.43,91,3,VerySmooth,2.288,0.434,0.359,0.691
 WindowMaterial:Glazing,LOE SPEC SEL CLEAR 3MM,SpectralAverage,,3.00000E-003,0.45000,0.34000,0.37000,0.78000,7.00000E-002,6.00000E-002,0.00000,0.84000,3.00000E-002,0.90000,1.00000,No
 WindowMaterial:Gas,AIR 6MM,Air,6.300E-003
 WindowMaterial:Glazing,CLEAR 6MM,SpectralAverage,,6.00000E-003,0.77500,7.10000E-002,7.10000E-002,0.88100,8.00000E-002,8.00000E-002,0.00000,0.84000,0.84000,0.90000,1.00000,No
 WindowConstruction,WINDOW_U_0.40_SHGC_0.45,92,3,VerySmooth,2.262,0.469,0.364,0.657
 WindowMaterial:Glazing,ECABS-2 BLEACHED 6MM,SpectralAverage,,6.00000E-003,0.81400,8.60000E-002,8.60000E-002,0.84700,9.90000E-002,9.90000E-002,0.00000,0.84000,0.10000,0.90000,1.00000,No
 WindowMaterial:Gas,AIR 6MM,Air,6.300E-003
 WindowMaterial:Glazing,LOE SPEC SEL CLEAR 6MM REV,SpectralAverage,,6.00000E-003,0.43000,0.42000,0.30000,0.77000,6.00000E-002,7.00000E-002,0.00000,3.00000E-002,0.84000,0.90000,1.00000,No
 WindowConstruction,WINDOW_U_0.60_SHGC_0.25,93,3,VerySmooth,3.511,0.227,7.258E-002,0.284
 WindowMaterial:Glazing,GLASS_2175_LAYERAVG,SpectralAverage,,8.60000E-003,0.16776,0.21761,0.43798,0.41604,7.87290E-002,0.10654,0.00000,0.84000,0.84000,1.00000,1.00000,No
 WindowMaterial:Gas,GAP_1_W_0_0025,Air,2.500E-003
 WindowMaterial:Glazing,GLASS_2022F_LAYERAVG,SpectralAverage,,3.90000E-003,0.35590,0.39409,0.26565,0.67769,4.27340E-002,5.54700E-002,0.00000,4.60000E-002,0.84000,1.00000,1.00000,No
 WindowConstruction,WINDOW_U_0.55_SHGC_0.25,94,3,VerySmooth,3.191,0.218,7.258E-002,0.284
 WindowMaterial:Glazing,GLASS_2175_LAYERAVG,SpectralAverage,,8.60000E-003,0.16776,0.21761,0.43798,0.41604,7.87290E-002,0.10654,0.00000,0.84000,0.84000,1.00000,1.00000,No
 WindowMaterial:Gas,GAP_1_W_0_0032,Air,3.200E-003
 WindowMaterial:Glazing,GLASS_2022F_LAYERAVG,SpectralAverage,,3.90000E-003,0.35590,0.39409,0.26565,0.67769,4.27340E-002,5.54700E-002,0.00000,4.60000E-002,0.84000,1.00000,1.00000,No
 WindowConstruction,WINDOW_U_0.50_SHGC_0.25,95,3,VerySmooth,2.829,0.208,7.258E-002,0.284
 WindowMaterial:Glazing,GLASS_2175_LAYERAVG,SpectralAverage,,8.60000E-003,0.16776,0.21761,0.43798,0.41604,7.87290E-002,0.10654,0.00000,0.84000,0.84000,1.00000,1.00000,No
 WindowMaterial:Gas,GAP_1_W_0_0042,Air,4.200E-003
 WindowMaterial:Glazing,GLASS_2022F_LAYERAVG,SpectralAverage,,3.90000E-003,0.35590,0.39409,0.26565,0.67769,4.27340E-002,5.54700E-002,0.00000,4.60000E-002,0.84000,1.00000,1.00000,No
 WindowConstruction,WINDOW_U_0.47_SHGC_0.40,96,3,VerySmooth,2.810,0.360,0.227,0.471
 WindowMaterial:Glazing,GLASS_2052_LAYERAVG,SpectralAverage,,8.37000E-003,0.50777,5.42281E-002,5.44931E-002,0.58683,5.80500E-002,5.83970E-002,0.00000,0.84000,0.84000,1.00000,1.00000,No
 WindowMaterial:Gas,GAP_1_W_0_0043,Air,4.300E-003
 WindowMaterial:Glazing,GLASS_2010F_LAYERAVG,SpectralAverage,,2.21000E-003,0.43429,0.41837,0.34107,0.79758,4.35770E-002,5.60310E-002,0.00000,4.22740E-002,0.84000,1.00000,1.00000,No
 WindowConstruction,WINDOW_U_0.75_SHGC_0.35,97,3,VerySmooth,3.906,0.353,0.194,0.452
 WindowMaterial:Glazing,GLASS_2052_LAYERAVG,SpectralAverage,,8.37000E-003,0.50777,5.42281E-002,5.44931E-002,0.58683,5.80500E-002,5.83970E-002,0.00000,0.84000,0.84000,1.00000,1.00000,No
 WindowMaterial:Gas,GAP_1_W_0_0018,Air,1.800E-003
 WindowMaterial:Glazing,GLASS_2027F_LAYERAVG,SpectralAverage,,4.00000E-003,0.36974,0.47007,0.34094,0.76522,5.46000E-002,7.37410E-002,0.00000,3.67500E-002,0.84000,1.00000,1.00000,No
 WindowConstruction,WINDOW_U_0.65_SHGC_0.35,98,3,VerySmooth,3.559,0.347,0.194,0.452
 WindowMaterial:Glazing,GLASS_2052_LAYERAVG,SpectralAverage,,8.37000E-003,0.50777,5.42281E-002,5.44931E-002,0.58683,5.80500E-002,5.83970E-002,0.00000,0.84000,0.84000,1.00000,1.00000,No
 WindowMaterial:Gas,GAP_1_W_0_0024,Air,2.400E-003
 WindowMaterial:Glazing,GLASS_2027F_LAYERAVG,SpectralAverage,,4.00000E-003,0.36974,0.47007,0.34094,0.76522,5.46000E-002,7.37410E-002,0.00000,3.67500E-002,0.84000,1.00000,1.00000,No
 WindowConstruction,WINDOW_U_0.55_SHGC_0.35,99,3,VerySmooth,2.956,0.335,0.194,0.452
 WindowMaterial:Glazing,GLASS_2052_LAYERAVG,SpectralAverage,,8.37000E-003,0.50777,5.42281E-002,5.44931E-002,0.58683,5.80500E-002,5.83970E-002,0.00000,0.84000,0.84000,1.00000,1.00000,No
 WindowMaterial:Gas,GAP_1_W_0_0038,Air,3.800E-003
 WindowMaterial:Glazing,GLASS_2027F_LAYERAVG,SpectralAverage,,4.00000E-003,0.36974,0.47007,0.34094,0.76522,5.46000E-002,7.37410E-002,0.00000,3.67500E-002,0.84000,1.00000,1.00000,No
 WindowConstruction,WINDOW_U_0.50_SHGC_0.40,100,3,VerySmooth,2.956,0.335,0.194,0.452
 WindowMaterial:Glazing,GLASS_2052_LAYERAVG,SpectralAverage,,8.37000E-003,0.50777,5.42281E-002,5.44931E-002,0.58683,5.80500E-002,5.83970E-002,0.00000,0.84000,0.84000,1.00000,1.00000,No
 WindowMaterial:Gas,GAP_1_W_0_0038,Air,3.800E-003
 WindowMaterial:Glazing,GLASS_2027F_LAYERAVG,SpectralAverage,,4.00000E-003,0.36974,0.47007,0.34094,0.76522,5.46000E-002,7.37410E-002,0.00000,3.67500E-002,0.84000,1.00000,1.00000,No
 WindowConstruction,WINDOW_U_1.16_SHGC_0.25,101,1,VerySmooth,5.778,0.306,9.905E-002,0.155
 WindowMaterial:Glazing,ECREF-1 COLORED 6MM,SpectralAverage,,6.00000E-003,9.90000E-002,0.21900,0.21900,0.15500,7.30000E-002,7.30000E-002,0.00000,0.84000,0.84000,0.90000,1.00000,No
 WindowConstruction,WINDOW_U_1.08_SHGC_0.25,102,1,VerySmooth,5.778,0.306,9.905E-002,0.155
 WindowMaterial:Glazing,ECREF-1 COLORED 6MM,SpectralAverage,,6.00000E-003,9.90000E-002,0.21900,0.21900,0.15500,7.30000E-002,7.30000E-002,0.00000,0.84000,0.84000,0.90000,1.00000,No
 WindowConstruction,WINDOW_U_0.29_SHGC_0.45,103,3,VerySmooth,1.614,0.426,0.322,0.634
 WindowMaterial:Glazing,ECREF-2 BLEACHED 6MM,SpectralAverage,,6.00000E-003,0.69400,0.16800,0.16800,0.81800,0.11000,0.11000,0.00000,0.84000,0.10000,0.90000,1.00000,No
 WindowMaterial:Gas,AIR 13MM,Air,1.270E-002
 WindowMaterial:Glazing,LOE SPEC SEL CLEAR 6MM REV,SpectralAverage,,6.00000E-003,0.43000,0.42000,0.30000,0.77000,6.00000E-002,7.00000E-002,0.00000,3.00000E-002,0.84000,0.90000,1.00000,No
 WindowConstruction,WINDOW_U_1.60_SHGC_0.40,104,1,VerySmooth,5.067,0.400,0.241,0.301
 WindowMaterial:Glazing,REF B CLEAR HI 6MM,SpectralAverage,,6.00000E-003,0.24000,0.16000,0.32000,0.30000,0.16000,0.29000,0.00000,0.84000,0.60000,0.90000,1.00000,No
 WindowConstruction,WINDOW_U_1.05_SHGC_0.40,105,1,VerySmooth,5.067,0.400,0.241,0.301
 WindowMaterial:Glazing,REF B CLEAR HI 6MM,SpectralAverage,,6.00000E-003,0.24000,0.16000,0.32000,0.30000,0.16000,0.29000,0.00000,0.84000,0.60000,0.90000,1.00000,No
 WindowConstruction,WINDOW_U_0.90_SHGC_0.40,106,1,VerySmooth,5.067,0.400,0.241,0.301
 WindowMaterial:Glazing,REF B CLEAR HI 6MM,SpectralAverage,,6.00000E-003,0.24000,0.16000,0.32000,0.30000,0.16000,0.29000,0.00000,0.84000,0.60000,0.90000,1.00000,No
! <Shadowing/Sun Position Calculations Annual Simulations>, Calculation Method, Value {days}, Allowable Number Figures in Shadow Overlap {}, Polygon Clipping Algorithm, Sky Diffuse Modeling Algorithm
Shadowing/Sun Position Calculations Annual Simulations,AverageOverDaysInFrequency,30,15000,SutherlandHodgman,SimpleSkyDiffuseModeling,InternalCalculation,No
! <Zone/Window Adjacency Daylighting Counts>, Zone Name, Number of Exterior Windows, Number of Exterior Windows in Adjacent Zones
Zone/Window Adjacency Daylighting Counts, PERIMETER_BOT_ZN_3,1,0
Zone/Window Adjacency Daylighting Counts, PERIMETER_BOT_ZN_2,1,0
Zone/Window Adjacency Daylighting Counts, PERIMETER_BOT_ZN_1,1,0
Zone/Window Adjacency Daylighting Counts, PERIMETER_BOT_ZN_4,1,0
Zone/Window Adjacency Daylighting Counts, PERIMETER_MID_ZN_3,1,0
Zone/Window Adjacency Daylighting Counts, PERIMETER_MID_ZN_2,1,0
Zone/Window Adjacency Daylighting Counts, PERIMETER_MID_ZN_1,1,0
Zone/Window Adjacency Daylighting Counts, PERIMETER_MID_ZN_4,1,0
Zone/Window Adjacency Daylighting Counts, PERIMETER_TOP_ZN_3,1,0
Zone/Window Adjacency Daylighting Counts, PERIMETER_TOP_ZN_2,1,0
Zone/Window Adjacency Daylighting Counts, PERIMETER_TOP_ZN_1,1,0
Zone/Window Adjacency Daylighting Counts, PERIMETER_TOP_ZN_4,1,0
! <Zone/Window Adjacency Daylighting Matrix>, Zone Name, Number of Adjacent Zones with Windows,Adjacent Zone Names - 1st 100 (max)
Zone/Window Adjacency Daylighting Matrix, PERIMETER_BOT_ZN_3,0
Zone/Window Adjacency Daylighting Matrix, PERIMETER_BOT_ZN_2,0
Zone/Window Adjacency Daylighting Matrix, PERIMETER_BOT_ZN_1,0
Zone/Window Adjacency Daylighting Matrix, PERIMETER_BOT_ZN_4,0
Zone/Window Adjacency Daylighting Matrix, PERIMETER_MID_ZN_3,0
Zone/Window Adjacency Daylighting Matrix, PERIMETER_MID_ZN_2,0
Zone/Window Adjacency Daylighting Matrix, PERIMETER_MID_ZN_1,0
Zone/Window Adjacency Daylighting Matrix, PERIMETER_MID_ZN_4,0
Zone/Window Adjacency Daylighting Matrix, PERIMETER_TOP_ZN_3,0
Zone/Window Adjacency Daylighting Matrix, PERIMETER_TOP_ZN_2,0
Zone/Window Adjacency Daylighting Matrix, PERIMETER_TOP_ZN_1,0
Zone/Window Adjacency Daylighting Matrix, PERIMETER_TOP_ZN_4,0
! <Water Heater Information>,Type,Name,Volume {m3},Maximum Capacity {W},Standard Rated Recovery Efficiency, Standard Rated Energy Factor
! <Surface Convection Parameters>, Surface Name, Outside Model Assignment, Outside Area [m2], Outside Perimeter [m], Outside Height [m], Inside Model Assignment, Inside Height [cm], Inside Perimeter Envelope [m], Inside Hydraulic Diameter [m], Window Wall Ratio [ ], Window Location [ ], Near Radiant [Yes/No], Has Active HVAC [Yes/No]
Surface Convection Parameters,BASEMENT_WALL_EAST,0,0.00,0.00,0.00,0,2.44,0.00,52.56,-999.00,0,No,No
Surface Convection Parameters,BASEMENT_WALL_SOUTH,0,0.00,0.00,0.00,0,2.44,0.00,52.56,-999.00,0,No,No
Surface Convection Parameters,BASEMENT_WALL_NORTH,0,0.00,0.00,0.00,0,2.44,0.00,52.56,-999.00,0,No,No
Surface Convection Parameters,BASEMENT_WALL_WEST,0,0.00,0.00,0.00,0,2.44,0.00,52.56,-999.00,0,No,No
Surface Convection Parameters,BASEMENT_FLOOR,0,0.00,0.00,0.00,0,2.44,0.00,52.56,-999.00,0,No,No
Surface Convection Parameters,PERIMETER_BOT_ZN_2_FLOOR-PPAUTOCREATEOTHER,0,0.00,0.00,0.00,0,2.44,0.00,52.56,-999.00,0,No,No
Surface Convection Parameters,PERIMETER_BOT_ZN_1_FLOOR-PPAUTOCREATEOTHER,0,0.00,0.00,0.00,0,2.44,0.00,52.56,-999.00,0,No,No
Surface Convection Parameters,CORE_BOT_ZN_5_FLOOR-PPAUTOCREATEOTHER,0,0.00,0.00,0.00,0,2.44,0.00,52.56,-999.00,0,No,No
Surface Convection Parameters,PERIMETER_BOT_ZN_3_FLOOR-PPAUTOCREATEOTHER,0,0.00,0.00,0.00,0,2.44,0.00,52.56,-999.00,0,No,No
Surface Convection Parameters,BASEMENT_INTERNALMASS_1,0,0.00,0.00,0.00,0,2.44,0.00,52.56,-999.00,0,No,No
Surface Convection Parameters,CORE_BOT_ZN_5_WALL_SOUTH,0,0.00,0.00,0.00,0,2.74,0.00,48.64,-999.00,0,No,No
Surface Convection Parameters,CORE_BOT_ZN_5_WALL_WEST,0,0.00,0.00,0.00,0,2.74,0.00,48.64,-999.00,0,No,No
Surface Convection Parameters,CORE_BOT_ZN_5_WALL_NORTH,0,0.00,0.00,0.00,0,2.74,0.00,48.64,-999.00,0,No,No
Surface Convection Parameters,CORE_BOT_ZN_5_WALL_EAST,0,0.00,0.00,0.00,0,2.74,0.00,48.64,-999.00,0,No,No
Surface Convection Parameters,DATACENTER_BASEMENT_ZN_6_CEILING-CORE_BOT_ZN_5-PPAUTOCREATEOTHER,0,0.00,0.00,0.00,0,2.74,0.00,48.64,-999.00,0,No,No
Surface Convection Parameters,CORE_BOT_ZN_5_FLOOR,0,0.00,0.00,0.00,0,2.74,0.00,48.64,-999.00,0,No,No
Surface Convection Parameters,CORE_BOT_ZN_5_CEILING,0,0.00,0.00,0.00,0,2.74,0.00,48.64,-999.00,0,No,No
Surface Convection Parameters,CORE_BOTTOM_INTERNALMASS_1,0,0.00,0.00,0.00,0,2.74,0.00,48.64,-999.00,0,No,No
Surface Convection Parameters,CORE_MID_ZN_5_WALL_SOUTH,0,0.00,0.00,0.00,0,2.74,0.00,48.64,-999.00,0,No,No
Surface Convection Parameters,CORE_MID_ZN_5_WALL_WEST,0,0.00,0.00,0.00,0,2.74,0.00,48.64,-999.00,0,No,No
Surface Convection Parameters,CORE_MID_ZN_5_WALL_NORTH,0,0.00,0.00,0.00,0,2.74,0.00,48.64,-999.00,0,No,No
Surface Convection Parameters,CORE_MID_ZN_5_WALL_EAST,0,0.00,0.00,0.00,0,2.74,0.00,48.64,-999.00,0,No,No
Surface Convection Parameters,CORE_MID_ZN_5_FLOOR,0,0.00,0.00,0.00,0,2.74,0.00,48.64,-999.00,0,No,No
Surface Convection Parameters,CORE_MID_ZN_5_CEILING,0,0.00,0.00,0.00,0,2.74,0.00,48.64,-999.00,0,No,No
Surface Convection Parameters,CORE_MID_INTERNALMASS_1,0,0.00,0.00,0.00,0,2.74,0.00,48.64,-999.00,0,No,No
Surface Convection Parameters,CORE_TOP_ZN_5_WALL_SOUTH,0,0.00,0.00,0.00,0,2.74,0.00,48.64,-999.00,0,No,No
Surface Convection Parameters,CORE_TOP_ZN_5_WALL_WEST,0,0.00,0.00,0.00,0,2.74,0.00,48.64,-999.00,0,No,No
Surface Convection Parameters,CORE_TOP_ZN_5_WALL_NORTH,0,0.00,0.00,0.00,0,2.74,0.00,48.64,-999.00,0,No,No
Surface Convection Parameters,CORE_TOP_ZN_5_WALL_EAST,0,0.00,0.00,0.00,0,2.74,0.00,48.64,-999.00,0,No,No
Surface Convection Parameters,CORE_TOP_ZN_5_FLOOR,0,0.00,0.00,0.00,0,2.74,0.00,48.64,-999.00,0,No,No
Surface Convection Parameters,CORE_TOP_ZN_5_CEILING,0,0.00,0.00,0.00,0,2.74,0.00,48.64,-999.00,0,No,No
Surface Convection Parameters,CORE_TOP_INTERNALMASS_1,0,0.00,0.00,0.00,0,2.74,0.00,48.64,-999.00,0,No,No
Surface Convection Parameters,PERIMETER_BOT_ZN_3_WALL_NORTH,0,869.22,250.73,37.50,0,2.74,73.11,8.07,0.58,3,No,No
Surface Convection Parameters,PERIMETER_BOT_ZN_3_WALL_NORTH_WINDOW,0,869.22,250.73,37.50,0,2.74,73.11,8.07,0.58,5,No,No
Surface Convection Parameters,PERIMETER_BOT_ZN_3_WALL_WEST,0,0.00,0.00,0.00,0,2.74,73.11,8.07,0.58,0,No,No
Surface Convection Parameters,CORE_BOT_ZN_5_WALL_NORTH-PPAUTOCREATEOTHER,0,0.00,0.00,0.00,0,2.74,73.11,8.07,0.58,0,No,No
Surface Convection Parameters,PERIMETER_BOT_ZN_2_WALL_NORTH-PPAUTOCREATEOTHER,0,0.00,0.00,0.00,0,2.74,73.11,8.07,0.58,0,No,No
Surface Convection Parameters,DATACENTER_BOT_ZN_6_WALL_NORTH-PPAUTOCREATEOTHER,0,0.00,0.00,0.00,0,2.74,73.11,8.07,0.58,0,No,No
Surface Convection Parameters,PERIMETER_BOT_ZN_3_FLOOR,0,0.00,0.00,0.00,0,2.74,73.11,8.07,0.58,0,No,No
Surface Convection Parameters,DATACENTER_BASEMENT_ZN_6_CEILING-PERIMETER_BOT_ZN_3-PPAUTOCREATEOTHER,0,0.00,0.00,0.00,0,2.74,73.11,8.07,0.58,0,No,No
Surface Convection Parameters,PERIMETER_BOT_ZN_3_CEILING,0,0.00,0.00,0.00,0,2.74,73.11,8.07,0.58,0,No,No
Surface Convection Parameters,PERIMETER_BOT_ZN_3_INTERNALMASS_1,0,0.00,0.00,0.00,0,2.74,73.11,8.07,0.58,0,No,No
Surface Convection Parameters,PERIMETER_BOT_ZN_2_WALL_EAST,0,579.48,250.73,37.50,0,2.74,48.74,7.58,0.58,3,No,No
Surface Convection Parameters,PERIMETER_BOT_ZN_2_WALL_EAST_WINDOW,0,579.48,250.73,37.50,0,2.74,48.74,7.58,0.58,5,No,No
Surface Convection Parameters,PERIMETER_BOT_ZN_2_WALL_NORTH,0,0.00,0.00,0.00,0,2.74,48.74,7.58,0.58,0,No,No
Surface Convection Parameters,CORE_BOT_ZN_5_WALL_EAST-PPAUTOCREATEOTHER,0,0.00,0.00,0.00,0,2.74,48.74,7.58,0.58,0,No,No
Surface Convection Parameters,PERIMETER_BOT_ZN_1_WALL_EAST-PPAUTOCREATEOTHER,0,0.00,0.00,0.00,0,2.74,48.74,7.58,0.58,0,No,No
Surface Convection Parameters,PERIMETER_BOT_ZN_2_FLOOR,0,0.00,0.00,0.00,0,2.74,48.74,7.58,0.58,0,No,No
Surface Convection Parameters,PERIMETER_BOT_ZN_2_CEILING,0,0.00,0.00,0.00,0,2.74,48.74,7.58,0.58,0,No,No
Surface Convection Parameters,PERIMETER_BOT_ZN_2_INTERNALMASS_1,0,0.00,0.00,0.00,0,2.74,48.74,7.58,0.58,0,No,No
Surface Convection Parameters,PERIMETER_BOT_ZN_1_WALL_SOUTH,0,869.22,221.21,37.50,0,2.74,73.11,8.07,0.58,3,No,No
Surface Convection Parameters,PERIMETER_BOT_ZN_1_WALL_SOUTH_WINDOW,0,869.22,221.21,37.50,0,2.74,73.11,8.07,0.58,5,No,No
Surface Convection Parameters,PERIMETER_BOT_ZN_1_WALL_EAST,0,0.00,0.00,0.00,0,2.74,73.11,8.07,0.58,0,No,No
Surface Convection Parameters,DATACENTER_BOT_ZN_6_WALL_SOUTH-PPAUTOCREATEOTHER,0,0.00,0.00,0.00,0,2.74,73.11,8.07,0.58,0,No,No
Surface Convection Parameters,PERIMETER_BOT_ZN_4_WALL_SOUTH-PPAUTOCREATEOTHER,0,0.00,0.00,0.00,0,2.74,73.11,8.07,0.58,0,No,No
Surface Convection Parameters,CORE_BOT_ZN_5_WALL_SOUTH-PPAUTOCREATEOTHER,0,0.00,0.00,0.00,0,2.74,73.11,8.07,0.58,0,No,No
[...]
HeatTransfer Surface,DATACENTER_TOP_ZN_6_WALL_SOUTH,Wall,,CTF - ConductionTransferFunction,INT_WALL,6.299,3.242,,2.51,2.51,2.51,180.00,90.00,0.91,2.74,0.00,DATACENTER_TOP_ZN_6_WALL_SOUTH-PPAUTOCREATEOTHER,Other/Same Surface Int Conv,ASHRAETARP,NoSun,NoWind,0.00,0.50,0.50,0.50,4
HeatTransfer Surface,DATACENTER_TOP_ZN_6_WALL_NORTH,Wall,,CTF - ConductionTransferFunction,INT_WALL,6.299,3.242,,2.51,2.51,2.51,0.00,90.00,0.91,2.74,0.00,DATACENTER_TOP_ZN_6_WALL_NORTH-PPAUTOCREATEOTHER,Other/Same Surface Int Conv,ASHRAETARP,NoSun,NoWind,0.00,0.50,0.50,0.50,4
HeatTransfer Surface,DATACENTER_TOP_ZN_6_FLOOR,Floor,,CTF - ConductionTransferFunction,INT_SLAB_FLOOR,3.839,1.986,,36.20,36.20,36.20,0.00,180.00,0.91,39.59,0.00,DATACENTER_TOP_ZN_6_FLOOR,Other/Same Surface Int Conv,ASHRAETARP,NoSun,NoWind,0.00,0.00,1.00,0.00,4
HeatTransfer Surface,DATACENTER_TOP_ZN_6_CEILING,Roof,,CTF - ConductionTransferFunction,DROPCEILING,4.488,2.432,,36.20,36.20,36.20,180.00,0.00,0.91,39.59,0.00,iz-DATACENTER_TOP_ZN_6_CEILING,Other/Same Surface Int Conv,ASHRAETARP,NoSun,NoWind,0.00,1.00,0.00,1.00,4
Zone Surfaces,DATACENTER_BASEMENT_ZN_6,10
HeatTransfer Surface,DATACENTER_BASEMENT_ZN_6_WALL_NORTH,Wall,,CTF - ConductionTransferFunction,BASEMENT_WALL,6.526,3.301,,39.22,39.22,39.22,0.00,90.00,16.08,2.44,0.00,SURFPROPOTHSDCOEFBASEMENTAVGWALL,N/A-OSC,ASHRAETARP,NoSun,NoWind,0.00,0.50,0.50,0.50,4
HeatTransfer Surface,DATACENTER_BASEMENT_ZN_6_WALL_SOUTH,Wall,,CTF - ConductionTransferFunction,BASEMENT_WALL,6.526,3.301,,39.22,39.22,39.22,180.00,90.00,16.08,2.44,0.00,SURFPROPOTHSDCOEFBASEMENTAVGWALL,N/A-OSC,ASHRAETARP,NoSun,NoWind,0.00,0.50,0.50,0.50,4
HeatTransfer Surface,DATACENTER_BASEMENT_ZN_6_WALL_WEST,Wall,,CTF - ConductionTransferFunction,BASEMENT_WALL,6.526,3.301,,118.87,118.87,118.87,270.00,90.00,48.74,2.44,0.00,SURFPROPOTHSDCOEFBASEMENTAVGWALL,N/A-OSC,ASHRAETARP,NoSun,NoWind,0.00,0.50,0.50,0.50,4
HeatTransfer Surface,DATACENTER_BASEMENT_ZN_6_WALL_EAST,Wall,,CTF - ConductionTransferFunction,INT_WALL,6.299,3.242,,118.87,118.87,118.87,90.00,90.00,48.74,2.44,0.00,BASEMENT_WALL_WEST,Other/Same Surface Int Conv,ASHRAETARP,NoSun,NoWind,0.00,0.50,0.50,0.50,4
HeatTransfer Surface,DATACENTER_BASEMENT_ZN_6_FLOOR,Floor,,CTF - ConductionTransferFunction,EXT_SLAB_8IN_WITH_CARPET,3.285,1.827,,783.68,783.68,783.68,0.00,180.00,16.08,48.74,0.00,SURFPROPOTHSDCOEFBASEMENTAVGFLOOR,N/A-OSC,ASHRAETARP,NoSun,NoWind,0.00,0.00,1.00,0.00,4
HeatTransfer Surface,DATACENTER_BOT_ZN_6_FLOOR-PPAUTOCREATEOTHER,Roof,,CTF - ConductionTransferFunction,INT_SLAB_CEILING,3.839,2.228,,36.20,36.20,36.20,180.00,0.00,0.91,39.59,0.00,DATACENTER_BOT_ZN_6_FLOOR,Other/Same Surface Int Conv,ASHRAETARP,NoSun,NoWind,0.00,1.00,0.00,1.00,4
HeatTransfer Surface,DATACENTER_BASEMENT_ZN_6_CEILING-CORE_BOT_ZN_5,Roof,,CTF - ConductionTransferFunction,INT_SLAB_CEILING,3.839,2.228,,419.35,419.35,419.35,180.00,0.00,10.59,39.59,0.00,DATACENTER_BASEMENT_ZN_6_CEILING-CORE_BOT_ZN_5-PPAUTOCREATEOTHER,Other/Same Surface Int Conv,ASHRAETARP,NoSun,NoWind,0.00,1.00,0.00,1.00,4
HeatTransfer Surface,PERIMETER_BOT_ZN_4_FLOOR-PPAUTOCREATEOTHER,Roof,,CTF - ConductionTransferFunction,INT_SLAB_CEILING,3.839,2.228,,201.98,201.98,201.98,135.00,0.00,6.47,48.74,0.00,PERIMETER_BOT_ZN_4_FLOOR,Other/Same Surface Int Conv,ASHRAETARP,NoSun,NoWind,0.00,1.00,0.00,1.00,4
HeatTransfer Surface,DATACENTER_BASEMENT_ZN_6_CEILING-PERIMETER_BOT_ZN_1,Roof,,CTF - ConductionTransferFunction,INT_SLAB_CEILING,3.839,2.228,,63.08,63.08,63.08,180.00,0.00,16.08,6.47,0.00,DATACENTER_BASEMENT_ZN_6-PERIMETER_BOT_ZN_1-PPAUTOCREATEOTHER,Other/Same Surface Int Conv,ASHRAETARP,NoSun,NoWind,0.00,1.00,0.00,1.00,4
HeatTransfer Surface,DATACENTER_BASEMENT_ZN_6_CEILING-PERIMETER_BOT_ZN_3,Roof,,CTF - ConductionTransferFunction,INT_SLAB_CEILING,3.839,2.228,,63.07,63.07,63.07,180.00,0.00,11.51,6.47,0.00,DATACENTER_BASEMENT_ZN_6_CEILING-PERIMETER_BOT_ZN_3-PPAUTOCREATEOTHER,Other/Same Surface Int Conv,ASHRAETARP,NoSun,NoWind,0.00,1.00,0.00,1.00,4
! <Environment>,Environment Name,Environment Type, Start Date, End Date, Start DayOfWeek, Duration {#days}, Source:Start DayOfWeek,  Use Daylight Saving, Use Holidays, Apply Weekend Holiday Rule,  Use Rain Values, Use Snow Values
! <Environment:Special Days>, Special Day Name, Special Day Type, Source, Start Date, Duration {#days}
! <Environment:Daylight Saving>, Daylight Saving Indicator, Source, Start Date, End Date
! <Environment:WarmupDays>, NumberofWarmupDays
Environment,MIAMI INTL AP ANN HTG 99.6% CONDNS DB,SizingPeriod:DesignDay,01/21,01/21,WinterDesignDay,1,N/A,N/A,N/A,N/A,N/A,N/A
Environment:Daylight Saving,No,SizingPeriod:DesignDay
! <Environment:Design Day Data>, Max Dry-Bulb Temp {C}, Temp Range {dC}, Temp Range Ind Type, Hum Ind Value at Max Temp, Hum Ind Type,Pressure {Pa}, Wind Direction {deg CW from N}, Wind Speed {m/s}, Clearness, Rain, Snow
! <Environment:Design Day Misc>,DayOfYear,ASHRAE A Coeff,ASHRAE B Coeff,ASHRAE C Coeff,Solar Constant-Annual Variation,Eq of Time {minutes}, Solar Declination Angle {deg}, Solar Model
Environment:Design Day Data,8.70,0.00,DefaultMultipliers,101193,340,3.8,0.00,No,No
Environment:Design Day Misc, 21,1229.0,0.1415,5.7310E-002,1.0,-11.15,-20.1,ASHRAEClearSky
Environment:WarmupDays,  8
! <Tabular Report>,Style,Unit Conversion
Tabular Report,Commaandhtml,commaandhtml
! <Warmup Convergence Information>,Zone Name,Environment Type/Name,Average Warmup Temperature Difference {deltaC},Std Dev Warmup Temperature Difference {deltaC},Max Temperature Pass/Fail Convergence,Min Temperature Pass/Fail Convergence,Average Warmup Load Difference {W},Std Dev Warmup Load Difference {W},Heating Load Pass/Fail Convergence,Cooling Load Pass/Fail Convergence
 Warmup Convergence Information,BASEMENT,SizingPeriod: MIAMI INTL AP ANN HTG 99.6% CONDNS DB,2.4502152960E-002,7.0447661308E-002,Pass,Pass,1.3201826852E-002,0.1102343059,Pass,Pass
 Warmup Convergence Information,CORE_BOTTOM,SizingPeriod: MIAMI INTL AP ANN HTG 99.6% CONDNS DB,0.1158248939,0.2098323677,Pass,Pass,0.1156227350,0.3182419321,Pass,Pass
 Warmup Convergence Information,CORE_MID,SizingPeriod: MIAMI INTL AP ANN HTG 99.6% CONDNS DB,8.7323795572E-002,0.1608964802,Pass,Pass,0.2638114625,0.8335600426,Pass,Pass
 Warmup Convergence Information,CORE_TOP,SizingPeriod: MIAMI INTL AP ANN HTG 99.6% CONDNS DB,0.1558000838,0.2582354024,Pass,Pass,0.2693887718,0.6061418775,Pass,Pass
 Warmup Convergence Information,PERIMETER_BOT_ZN_3,SizingPeriod: MIAMI INTL AP ANN HTG 99.6% CONDNS DB,3.9375973208E-002,6.9347738196E-002,Pass,Pass,0.1219893448,0.3041726756,Pass,Pass
 Warmup Convergence Information,PERIMETER_BOT_ZN_2,SizingPeriod: MIAMI INTL AP ANN HTG 99.6% CONDNS DB,0.1016188844,0.2121261122,Pass,Pass,0.1274542951,0.3290710086,Pass,Pass
 Warmup Convergence Information,PERIMETER_BOT_ZN_1,SizingPeriod: MIAMI INTL AP ANN HTG 99.6% CONDNS DB,5.9136379199E-002,0.1167967124,Pass,Pass,0.1319761366,0.3257231664,Pass,Pass
 Warmup Convergence Information,PERIMETER_BOT_ZN_4,SizingPeriod: MIAMI INTL AP ANN HTG 99.6% CONDNS DB,0.2220484121,0.4527641491,Pass,Pass,0.1153692434,0.3172930525,Pass,Pass
 Warmup Convergence Information,PERIMETER_MID_ZN_3,SizingPeriod: MIAMI INTL AP ANN HTG 99.6% CONDNS DB,0.3179758526,0.5883811670,Pass,Pass,0.1842338294,0.5848220997,Pass,Pass
 Warmup Convergence Information,PERIMETER_MID_ZN_2,SizingPeriod: MIAMI INTL AP ANN HTG 99.6% CONDNS DB,0.3270280330,0.6266374887,Pass,Pass,0.1722587117,0.4712052357,Pass,Pass
 Warmup Convergence Information,PERIMETER_MID_ZN_1,SizingPeriod: MIAMI INTL AP ANN HTG 99.6% CONDNS DB,0.3165656683,0.5880323125,Pass,Pass,0.1813048373,0.5569492889,Pass,Pass
 Warmup Convergence Information,PERIMETER_MID_ZN_4,SizingPeriod: MIAMI INTL AP ANN HTG 99.6% CONDNS DB,0.2403836690,0.4722264788,Pass,Pass,0.1557716230,0.3786159606,Pass,Pass
 Warmup Convergence Information,PERIMETER_TOP_ZN_3,SizingPeriod: MIAMI INTL AP ANN HTG 99.6% CONDNS DB,0.3832538305,0.6419521101,Pass,Pass,0.6864641657,3.1269647227,Pass,Pass
 Warmup Convergence Information,PERIMETER_TOP_ZN_2,SizingPeriod: MIAMI INTL AP ANN HTG 99.6% CONDNS DB,0.3960748823,0.6771634518,Pass,Pass,0.6804318002,2.9919951783,Pass,Pass
 Warmup Convergence Information,PERIMETER_TOP_ZN_1,SizingPeriod: MIAMI INTL AP ANN HTG 99.6% CONDNS DB,0.3816700938,0.6410435727,Pass,Pass,1.0878411667,6.4835243170,Pass,Pass
 Warmup Convergence Information,PERIMETER_TOP_ZN_4,SizingPeriod: MIAMI INTL AP ANN HTG 99.6% CONDNS DB,0.3181901572,0.5596939984,Pass,Pass,0.2470347495,0.5244844580,Pass,Pass
 Warmup Convergence Information,GROUNDFLOOR_PLENUM,SizingPeriod: MIAMI INTL AP ANN HTG 99.6% CONDNS DB,2.0452846387E-002,3.9183153657E-002,Pass,Pass,0.1643212341,0.4641040682,Pass,Pass
 Warmup Convergence Information,MIDFLOOR_PLENUM,SizingPeriod: MIAMI INTL AP ANN HTG 99.6% CONDNS DB,6.1156096415E-002,9.5877820259E-002,Pass,Pass,1.6738648483,15.0962764959,Pass,Pass
 Warmup Convergence Information,TOPFLOOR_PLENUM,SizingPeriod: MIAMI INTL AP ANN HTG 99.6% CONDNS DB,0.1371096242,0.1709551748,Pass,Pass,0.2330203342,0.4774617493,Pass,Pass
 Warmup Convergence Information,DATACENTER_BOT_ZN_6,SizingPeriod: MIAMI INTL AP ANN HTG 99.6% CONDNS DB,1.2908193033E-013,1.0857918114E-013,Pass,Pass,2.0046261195E-003,2.2655632191E-003,Pass,Pass
 Warmup Convergence Information,DATACENTER_MID_ZN_6,SizingPeriod: MIAMI INTL AP ANN HTG 99.6% CONDNS DB,6.2135481945E-014,6.3757343695E-014,Pass,Pass,4.2062932904E-003,4.0609099032E-003,Pass,Pass
 Warmup Convergence Information,DATACENTER_TOP_ZN_6,SizingPeriod: MIAMI INTL AP ANN HTG 99.6% CONDNS DB,5.7805612149E-014,5.9755948736E-014,Pass,Pass,8.6727238980E-003,8.6331825233E-003,Pass,Pass
 Warmup Convergence Information,DATACENTER_BASEMENT_ZN_6,SizingPeriod: MIAMI INTL AP ANN HTG 99.6% CONDNS DB,2.4247270858E-013,1.9605620742E-013,Pass,Pass,6.4080125912E-005,3.0485362313E-005,Pass,Pass
Environment,MIAMI INTL AP ANN CLG .4% CONDNS DB=>MWB,SizingPeriod:DesignDay,07/21,07/21,SummerDesignDay,1,N/A,N/A,N/A,N/A,N/A,N/A
Environment:Daylight Saving,No,SizingPeriod:DesignDay
Environment:Design Day Data,33.20,6.70,DefaultMultipliers,101193,140,4.5,0.00,No,No
Environment:Design Day Misc,202,1084.4,0.2082,0.1365,1.0,-6.23,20.6,ASHRAETau
Environment:WarmupDays,  6
 Warmup Convergence Information,BASEMENT,SizingPeriod: MIAMI INTL AP ANN CLG .4% CONDNS DB=>MWB,0.1669821260,0.3073692802,Pass,Pass,0.2012478185,0.4432043941,Pass,Pass
 Warmup Convergence Information,CORE_BOTTOM,SizingPeriod: MIAMI INTL AP ANN CLG .4% CONDNS DB=>MWB,0.3337461698,0.5919531003,Pass,Pass,0.2248369693,0.4161174792,Pass,Pass
 Warmup Convergence Information,CORE_MID,SizingPeriod: MIAMI INTL AP ANN CLG .4% CONDNS DB=>MWB,0.2617800011,0.4477353795,Pass,Pass,0.2225608003,0.4019459598,Pass,Pass
 Warmup Convergence Information,CORE_TOP,SizingPeriod: MIAMI INTL AP ANN CLG .4% CONDNS DB=>MWB,0.2677061054,0.4611593085,Pass,Pass,0.2221833240,0.4018437544,Pass,Pass
 Warmup Convergence Information,PERIMETER_BOT_ZN_3,SizingPeriod: MIAMI INTL AP ANN CLG .4% CONDNS DB=>MWB,0.3553697726,0.6361171259,Pass,Pass,0.2387117769,0.4402744296,Pass,Pass
 Warmup Convergence Information,PERIMETER_BOT_ZN_2,SizingPeriod: MIAMI INTL AP ANN CLG .4% CONDNS DB=>MWB,0.3112557453,0.5491625108,Pass,Pass,0.2303436038,0.3936932134,Pass,Pass
 Warmup Convergence Information,PERIMETER_BOT_ZN_1,SizingPeriod: MIAMI INTL AP ANN CLG .4% CONDNS DB=>MWB,0.3400784435,0.6166032442,Pass,Pass,0.2380594159,0.4353223126,Pass,Pass
 Warmup Convergence Information,PERIMETER_BOT_ZN_4,SizingPeriod: MIAMI INTL AP ANN CLG .4% CONDNS DB=>MWB,0.8178484467,1.4838366960,Pass,Pass,0.2289440517,0.3999814233,Pass,Pass
 Warmup Convergence Information,PERIMETER_MID_ZN_3,SizingPeriod: MIAMI INTL AP ANN CLG .4% CONDNS DB=>MWB,0.2709974669,0.4784777067,Pass,Pass,0.2291020923,0.4110261820,Pass,Pass
 Warmup Convergence Information,PERIMETER_MID_ZN_2,SizingPeriod: MIAMI INTL AP ANN CLG .4% CONDNS DB=>MWB,0.3179968732,0.5379662017,Pass,Pass,0.2304005792,0.3929400266,Pass,Pass
 Warmup Convergence Information,PERIMETER_MID_ZN_1,SizingPeriod: MIAMI INTL AP ANN CLG .4% CONDNS DB=>MWB,0.2689136676,0.4800829819,Pass,Pass,0.2299980000,0.4080984765,Pass,Pass
 Warmup Convergence Information,PERIMETER_MID_ZN_4,SizingPeriod: MIAMI INTL AP ANN CLG .4% CONDNS DB=>MWB,0.4185315498,0.7253336108,Pass,Pass,0.2388435109,0.3988927843,Pass,Pass
 Warmup Convergence Information,PERIMETER_TOP_ZN_3,SizingPeriod: MIAMI INTL AP ANN CLG .4% CONDNS DB=>MWB,0.2743952276,0.4886737895,Pass,Pass,0.2297323514,0.4080452206,Pass,Pass
 Warmup Convergence Information,PERIMETER_TOP_ZN_2,SizingPeriod: MIAMI INTL AP ANN CLG .4% CONDNS DB=>MWB,0.3188173430,0.5426866089,Pass,Pass,0.2305531385,0.3929646324,Pass,Pass
 Warmup Convergence Information,PERIMETER_TOP_ZN_1,SizingPeriod: MIAMI INTL AP ANN CLG .4% CONDNS DB=>MWB,0.2729289067,0.4884056549,Pass,Pass,0.2328673235,0.4060377552,Pass,Pass
 Warmup Convergence Information,PERIMETER_TOP_ZN_4,SizingPeriod: MIAMI INTL AP ANN CLG .4% CONDNS DB=>MWB,0.4214563967,0.7312377753,Pass,Pass,0.2397794757,0.3972040062,Pass,Pass
 Warmup Convergence Information,GROUNDFLOOR_PLENUM,SizingPeriod: MIAMI INTL AP ANN CLG .4% CONDNS DB=>MWB,7.1541893741E-002,0.1222798827,Pass,Pass,0.2779725370,0.7220060060,Pass,Pass
 Warmup Convergence Information,MIDFLOOR_PLENUM,SizingPeriod: MIAMI INTL AP ANN CLG .4% CONDNS DB=>MWB,5.1892549346E-002,9.4810421953E-002,Pass,Pass,0.2610042317,0.5126836469,Pass,Pass
 Warmup Convergence Information,TOPFLOOR_PLENUM,SizingPeriod: MIAMI INTL AP ANN CLG .4% CONDNS DB=>MWB,8.0041598956E-002,8.3332570126E-002,Pass,Pass,0.2795805917,0.5194372697,Pass,Pass
 Warmup Convergence Information,DATACENTER_BOT_ZN_6,SizingPeriod: MIAMI INTL AP ANN CLG .4% CONDNS DB=>MWB,1.5554224575E-013,1.0510595382E-013,Pass,Pass,3.8629806079E-003,4.2156250919E-003,Pass,Pass
 Warmup Convergence Information,DATACENTER_MID_ZN_6,SizingPeriod: MIAMI INTL AP ANN CLG .4% CONDNS DB=>MWB,1.3689049894E-013,1.1994679180E-013,Pass,Pass,3.5415080953E-003,3.1308304019E-003,Pass,Pass
 Warmup Convergence Information,DATACENTER_TOP_ZN_6,SizingPeriod: MIAMI INTL AP ANN CLG .4% CONDNS DB=>MWB,1.1768364061E-013,1.0658171876E-013,Pass,Pass,3.7141180386E-003,3.2653281989E-003,Pass,Pass
 Warmup Convergence Information,DATACENTER_BASEMENT_ZN_6,SizingPeriod: MIAMI INTL AP ANN CLG .4% CONDNS DB=>MWB,3.9697625304E-005,3.7416846226E-005,Pass,Pass,1.2595289004E-004,8.3252812045E-005,Pass,Pass
Environment,Tampa International Ap FL USA TMY3 WMO#=722110,WeatherFileRunPeriod,01/01,12/31,Sunday,365,Use RunPeriod Specified Day,No,No,No,Yes,Yes
Environment:Daylight Saving,Yes,InputFile,03/12,11/05
Environment:Special Days,NEW YEARS DAY,Holiday,InputFile,01/01,  1
Environment:Special Days,VETERANS DAY,Holiday,InputFile,11/11,  1
Environment:Special Days,CHRISTMAS,Holiday,InputFile,12/25,  1
Environment:Special Days,INDEPENDENCE DAY,Holiday,InputFile,07/04,  1
Environment:Special Days,MLK DAY,Holiday,InputFile,01/16,  1
Environment:Special Days,PRESIDENTS DAY,Holiday,InputFile,02/20,  1
Environment:Special Days,MEMORIAL DAY,Holiday,InputFile,05/29,  1
Environment:Special Days,LABOR DAY,Holiday,InputFile,09/04,  1
Environment:Special Days,COLUMBUS DAY,Holiday,InputFile,10/09,  1
Environment:Special Days,THANKSGIVING,Holiday,InputFile,11/23,  1
Environment:WarmupDays,  7
 Warmup Convergence Information,BASEMENT,RunPeriod: Tampa International Ap FL USA TMY3 WMO#=722110,6.1583398864E-004,1.6724300075E-003,Pass,Pass,0.0000000000,0.0000000000,Pass,Pass
 Warmup Convergence Information,CORE_BOTTOM,RunPeriod: Tampa International Ap FL USA TMY3 WMO#=722110,0.5576241046,0.2826904503,Pass,Pass,0.6462333786,0.4781998386,Pass,Pass
 Warmup Convergence Information,CORE_MID,RunPeriod: Tampa International Ap FL USA TMY3 WMO#=722110,3.7531425405E-003,6.6531095463E-003,Pass,Pass,0.0000000000,0.0000000000,Pass,Pass
 Warmup Convergence Information,CORE_TOP,RunPeriod: Tampa International Ap FL USA TMY3 WMO#=722110,4.5357450201E-003,5.9572219436E-003,Pass,Pass,0.0000000000,0.0000000000,Pass,Pass
 Warmup Convergence Information,PERIMETER_BOT_ZN_3,RunPeriod: Tampa International Ap FL USA TMY3 WMO#=722110,0.4791237754,0.2948768080,Pass,Pass,0.6463675637,0.4783626642,Pass,Pass
 Warmup Convergence Information,PERIMETER_BOT_ZN_2,RunPeriod: Tampa International Ap FL USA TMY3 WMO#=722110,0.5550257846,0.3836483350,Pass,Pass,0.6471257658,0.4792642997,Pass,Pass
 Warmup Convergence Information,PERIMETER_BOT_ZN_1,RunPeriod: Tampa International Ap FL USA TMY3 WMO#=722110,0.4847322645,0.2958046610,Pass,Pass,0.6463807092,0.4784143193,Pass,Pass
 Warmup Convergence Information,PERIMETER_BOT_ZN_4,RunPeriod: Tampa International Ap FL USA TMY3 WMO#=722110,1.2939338924,0.9216143733,Pass,Pass,0.6463055356,0.4783592634,Pass,Pass
 Warmup Convergence Information,PERIMETER_MID_ZN_3,RunPeriod: Tampa International Ap FL USA TMY3 WMO#=722110,2.1357320391E-002,2.0998161115E-002,Pass,Pass,0.0000000000,0.0000000000,Pass,Pass
 Warmup Convergence Information,PERIMETER_MID_ZN_2,RunPeriod: Tampa International Ap FL USA TMY3 WMO#=722110,2.1263023908E-002,1.9612821093E-002,Pass,Pass,0.0000000000,0.0000000000,Pass,Pass
 Warmup Convergence Information,PERIMETER_MID_ZN_1,RunPeriod: Tampa International Ap FL USA TMY3 WMO#=722110,2.1250004660E-002,1.9441624878E-002,Pass,Pass,0.0000000000,0.0000000000,Pass,Pass
 Warmup Convergence Information,PERIMETER_MID_ZN_4,RunPeriod: Tampa International Ap FL USA TMY3 WMO#=722110,2.5304612755E-002,2.3472151826E-002,Pass,Pass,0.0000000000,0.0000000000,Pass,Pass
 Warmup Convergence Information,PERIMETER_TOP_ZN_3,RunPeriod: Tampa International Ap FL USA TMY3 WMO#=722110,2.1512253628E-002,1.8747654667E-002,Pass,Pass,0.0000000000,0.0000000000,Pass,Pass
 Warmup Convergence Information,PERIMETER_TOP_ZN_2,RunPeriod: Tampa International Ap FL USA TMY3 WMO#=722110,2.1368076794E-002,1.7580631492E-002,Pass,Pass,0.0000000000,0.0000000000,Pass,Pass
 Warmup Convergence Information,PERIMETER_TOP_ZN_1,RunPeriod: Tampa International Ap FL USA TMY3 WMO#=722110,2.1307100994E-002,1.7344121472E-002,Pass,Pass,0.0000000000,0.0000000000,Pass,Pass
 Warmup Convergence Information,PERIMETER_TOP_ZN_4,RunPeriod: Tampa International Ap FL USA TMY3 WMO#=722110,2.4568512099E-002,2.1007089810E-002,Pass,Pass,0.0000000000,0.0000000000,Pass,Pass
 Warmup Convergence Information,GROUNDFLOOR_PLENUM,RunPeriod: Tampa International Ap FL USA TMY3 WMO#=722110,5.7582063903E-002,2.6735812962E-002,Pass,Pass,0.7337462298,0.6707317156,Pass,Pass
 Warmup Convergence Information,MIDFLOOR_PLENUM,RunPeriod: Tampa International Ap FL USA TMY3 WMO#=722110,4.1237790070E-003,3.1619858668E-003,Pass,Pass,0.0000000000,0.0000000000,Pass,Pass
 Warmup Convergence Information,TOPFLOOR_PLENUM,RunPeriod: Tampa International Ap FL USA TMY3 WMO#=722110,8.1710521285E-003,4.2699174664E-003,Pass,Pass,0.0000000000,0.0000000000,Pass,Pass
 Warmup Convergence Information,DATACENTER_BOT_ZN_6,RunPeriod: Tampa International Ap FL USA TMY3 WMO#=722110,1.0350979333E-013,8.3489747484E-014,Pass,Pass,2.0002659714E-003,1.1826066974E-003,Pass,Pass
 Warmup Convergence Information,DATACENTER_MID_ZN_6,RunPeriod: Tampa International Ap FL USA TMY3 WMO#=722110,1.1353880798E-013,9.8895275874E-014,Pass,Pass,3.0223865884E-004,2.3356771462E-004,Pass,Pass
 Warmup Convergence Information,DATACENTER_TOP_ZN_6,RunPeriod: Tampa International Ap FL USA TMY3 WMO#=722110,9.4368957093E-014,8.1609070362E-014,Pass,Pass,2.9927205616E-004,2.2072148716E-004,Pass,Pass
 Warmup Convergence Information,DATACENTER_BASEMENT_ZN_6,RunPeriod: Tampa International Ap FL USA TMY3 WMO#=722110,8.8450898171E-005,7.5113965178E-005,Pass,Pass,1.1086158755E-005,6.7922754181E-006,Pass,Pass
! <Program Control Information:Threads/Parallel Sims>, Threading Supported,Maximum Number of Threads, Env Set Threads (OMP_NUM_THREADS), EP Env Set Threads (EP_OMP_NUM_THREADS), IDF Set Threads, Number of Threads Used (Interior Radiant Exchange), Number Nominal Surfaces, Number Parallel Sims
Program Control:Threads/Parallel Sims, No,1, N/A, N/A, N/A, N/A, N/A, N/A
End of Data
